

        *** GPGPU-Sim Simulator Version 4.2.0  [build gpgpu-sim_git-commit-0b34d100c2b9d4fc8a7dfd1cd234c660dfdbdc9e_modified_12.0] ***


GPGPU-Sim PTX: simulation mode 0 (can change with PTX_SIM_MODE_FUNC environment variable:
               1=functional simulation only, 0=detailed performance simulator)
GPGPU-Sim PTX: overriding embedded ptx with ptx file (PTX_SIM_USE_PTX_FILE is set)
GPGPU-Sim: Configuration options:

-save_embedded_ptx                      0 # saves ptx files embedded in binary as <n>.ptx
-keep                                   0 # keep intermediate files created by GPGPU-Sim when interfacing with external programs
-gpgpu_ptx_save_converted_ptxplus                    1 # Saved converted ptxplus to a file
-gpgpu_occupancy_sm_number                   75 # The SM number to pass to ptxas when getting register usage for computing GPU occupancy. This parameter is required in the config.
-ptx_opcode_latency_int           4,4,4,4,21 # Opcode latencies for integers <ADD,MAX,MUL,MAD,DIV,SHFL>Default 1,1,19,25,145,32
-ptx_opcode_latency_fp           4,4,4,4,39 # Opcode latencies for single precision floating points <ADD,MAX,MUL,MAD,DIV>Default 1,1,1,1,30
-ptx_opcode_latency_dp      64,64,64,64,330 # Opcode latencies for double precision floating points <ADD,MAX,MUL,MAD,DIV>Default 8,8,8,8,335
-ptx_opcode_latency_sfu                   21 # Opcode latencies for SFU instructionsDefault 8
-ptx_opcode_latency_tesnor                   64 # Opcode latencies for Tensor instructionsDefault 64
-ptx_opcode_initiation_int            2,2,2,2,2 # Opcode initiation intervals for integers <ADD,MAX,MUL,MAD,DIV,SHFL>Default 1,1,4,4,32,4
-ptx_opcode_initiation_fp            2,2,2,2,4 # Opcode initiation intervals for single precision floating points <ADD,MAX,MUL,MAD,DIV>Default 1,1,1,1,5
-ptx_opcode_initiation_dp      64,64,64,64,130 # Opcode initiation intervals for double precision floating points <ADD,MAX,MUL,MAD,DIV>Default 8,8,8,8,130
-ptx_opcode_initiation_sfu                    8 # Opcode initiation intervals for sfu instructionsDefault 8
-ptx_opcode_initiation_tensor                   64 # Opcode initiation intervals for tensor instructionsDefault 64
-cdp_latency         7200,8000,100,12000,1600 # CDP API latency <cudaStreamCreateWithFlags, cudaGetParameterBufferV2_init_perWarp, cudaGetParameterBufferV2_perKernel, cudaLaunchDeviceV2_init_perWarp, cudaLaunchDevicV2_perKernel>Default 7200,8000,100,12000,1600
-network_mode                           2 # Interconnection network mode
-inter_config_file                   mesh # Interconnection network config file
-icnt_in_buffer_limit                  512 # in_buffer_limit
-icnt_out_buffer_limit                  512 # out_buffer_limit
-icnt_subnets                           2 # subnets
-icnt_arbiter_algo                      1 # arbiter_algo
-icnt_verbose                           0 # inct_verbose
-icnt_grant_cycles                      1 # grant_cycles
-gpgpu_ptx_use_cuobjdump                    1 # Use cuobjdump to extract ptx and sass from binaries
-gpgpu_experimental_lib_support                    0 # Try to extract code from cuda libraries [Broken because of unknown cudaGetExportTable]
-checkpoint_option                      0 #  checkpointing flag (0 = no checkpoint)
-checkpoint_kernel                      1 #  checkpointing during execution of which kernel (1- 1st kernel)
-checkpoint_CTA                         0 #  checkpointing after # of CTA (< less than total CTA)
-resume_option                          0 #  resume flag (0 = no resume)
-resume_kernel                          0 #  Resume from which kernel (1= 1st kernel)
-resume_CTA                             0 #  resume from which CTA 
-checkpoint_CTA_t                       0 #  resume from which CTA 
-checkpoint_insn_Y                      0 #  resume from which CTA 
-gpgpu_ptx_convert_to_ptxplus                    1 # Convert SASS (native ISA) to ptxplus and run ptxplus
-gpgpu_ptx_force_max_capability                   75 # Force maximum compute capability
-gpgpu_ptx_inst_debug_to_file                    0 # Dump executed instructions' debug information to file
-gpgpu_ptx_inst_debug_file       inst_debug.txt # Executed instructions' debug output file
-gpgpu_ptx_inst_debug_thread_uid                    1 # Thread UID for executed instructions' debug output
-gpgpu_simd_model                       1 # 1 = post-dominator
-gpgpu_shader_core_pipeline               128:32 # shader core pipeline config, i.e., {<nthread>:<warpsize>}
-gpgpu_tex_cache:l1  N:4:128:256,L:R:m:N:L,T:512:8,128:2 # per-shader L1 texture cache  (READ-ONLY) config  {<nsets>:<bsize>:<assoc>,<rep>:<wr>:<alloc>:<wr_alloc>,<mshr>:<N>:<merge>,<mq>:<rf>}
-gpgpu_const_cache:l1 N:128:64:8,L:R:f:N:L,S:2:64,4 # per-shader L1 constant memory cache  (READ-ONLY) config  {<nsets>:<bsize>:<assoc>,<rep>:<wr>:<alloc>:<wr_alloc>,<mshr>:<N>:<merge>,<mq>} 
-gpgpu_cache:il1     N:64:128:16,L:R:f:N:L,S:2:48,4 # shader L1 instruction cache config  {<nsets>:<bsize>:<assoc>,<rep>:<wr>:<alloc>:<wr_alloc>,<mshr>:<N>:<merge>,<mq>} 
-gpgpu_cache:dl1     S:4:128:64,L:T:m:L:L,A:256:32,16:0,32 # per-shader L1 data cache config  {<nsets>:<bsize>:<assoc>,<rep>:<wr>:<alloc>:<wr_alloc>,<mshr>:<N>:<merge>,<mq> | none}
-gpgpu_l1_cache_write_ratio                   25 # L1D write ratio
-gpgpu_l1_banks                         4 # The number of L1 cache banks
-gpgpu_l1_banks_byte_interleaving                   32 # l1 banks byte interleaving granularity
-gpgpu_l1_banks_hashing_function                    0 # l1 banks hashing function
-gpgpu_l1_latency                      32 # L1 Hit Latency
-gpgpu_smem_latency                    30 # smem Latency
-gpgpu_cache:dl1PrefL1                 none # per-shader L1 data cache config  {<nsets>:<bsize>:<assoc>,<rep>:<wr>:<alloc>:<wr_alloc>,<mshr>:<N>:<merge>,<mq> | none}
-gpgpu_cache:dl1PrefShared                 none # per-shader L1 data cache config  {<nsets>:<bsize>:<assoc>,<rep>:<wr>:<alloc>:<wr_alloc>,<mshr>:<N>:<merge>,<mq> | none}
-gpgpu_gmem_skip_L1D                    0 # global memory access skip L1D cache (implements -Xptxas -dlcm=cg, default=no skip)
-gpgpu_perfect_mem                      0 # enable perfect memory mode (no cache miss)
-n_regfile_gating_group                    4 # group of lanes that should be read/written together)
-gpgpu_clock_gated_reg_file                    0 # enable clock gated reg file for power calculations
-gpgpu_clock_gated_lanes                    0 # enable clock gated lanes for power calculations
-gpgpu_shader_registers                65536 # Number of registers per shader core. Limits number of concurrent CTAs. (default 8192)
-gpgpu_registers_per_block                65536 # Maximum number of registers per CTA. (default 8192)
-gpgpu_ignore_resources_limitation                    0 # gpgpu_ignore_resources_limitation (default 0)
-gpgpu_shader_cta                      16 # Maximum number of concurrent CTAs in shader (default 8)
-gpgpu_num_cta_barriers                   16 # Maximum number of named barriers per CTA (default 16)
-gpgpu_n_clusters                       1 # number of processing clusters
-gpgpu_n_cores_per_cluster                    4 # number of simd cores per cluster
-gpgpu_n_cluster_ejection_buffer_size                   32 # number of packets in ejection buffer
-gpgpu_n_ldst_response_buffer_size                    2 # number of response packets in ld/st unit ejection buffer
-gpgpu_shmem_per_block                49152 # Size of shared memory per thread block or CTA (default 48kB)
-gpgpu_shmem_size                   65536 # Size of shared memory per shader core (default 16kB)
-gpgpu_shmem_option                 32,64 # Option list of shared memory sizes
-gpgpu_unified_l1d_size                   96 # Size of unified data cache(L1D + shared memory) in KB
-gpgpu_adaptive_cache_config                    1 # adaptive_cache_config
-gpgpu_shmem_sizeDefault                65536 # Size of shared memory per shader core (default 16kB)
-gpgpu_shmem_size_PrefL1                16384 # Size of shared memory per shader core (default 16kB)
-gpgpu_shmem_size_PrefShared                16384 # Size of shared memory per shader core (default 16kB)
-gpgpu_shmem_num_banks                   32 # Number of banks in the shared memory in each shader core (default 16)
-gpgpu_shmem_limited_broadcast                    0 # Limit shared memory to do one broadcast per cycle (default on)
-gpgpu_shmem_warp_parts                    1 # Number of portions a warp is divided into for shared memory bank conflict check 
-gpgpu_mem_unit_ports                    1 # The number of memory transactions allowed per core cycle
-gpgpu_shmem_warp_parts                    1 # Number of portions a warp is divided into for shared memory bank conflict check 
-gpgpu_warpdistro_shader                   -1 # Specify which shader core to collect the warp size distribution from
-gpgpu_warp_issue_shader                    0 # Specify which shader core to collect the warp issue distribution from
-gpgpu_local_mem_map                    1 # Mapping from local memory space address to simulated GPU physical address space (default = enabled)
-gpgpu_num_reg_banks                    8 # Number of register banks (default = 8)
-gpgpu_reg_bank_use_warp_id                    0 # Use warp ID in mapping registers to banks (default = off)
-gpgpu_sub_core_model                    0 # Sub Core Volta/Pascal model (default = off)
-gpgpu_enable_specialized_operand_collector                    0 # enable_specialized_operand_collector
-gpgpu_operand_collector_num_units_sp                    4 # number of collector units (default = 4)
-gpgpu_operand_collector_num_units_dp                    0 # number of collector units (default = 0)
-gpgpu_operand_collector_num_units_sfu                    4 # number of collector units (default = 4)
-gpgpu_operand_collector_num_units_int                    0 # number of collector units (default = 0)
-gpgpu_operand_collector_num_units_tensor_core                    4 # number of collector units (default = 4)
-gpgpu_operand_collector_num_units_mem                    2 # number of collector units (default = 2)
-gpgpu_operand_collector_num_units_gen                    8 # number of collector units (default = 0)
-gpgpu_operand_collector_num_in_ports_sp                    1 # number of collector unit in ports (default = 1)
-gpgpu_operand_collector_num_in_ports_dp                    0 # number of collector unit in ports (default = 0)
-gpgpu_operand_collector_num_in_ports_sfu                    1 # number of collector unit in ports (default = 1)
-gpgpu_operand_collector_num_in_ports_int                    0 # number of collector unit in ports (default = 0)
-gpgpu_operand_collector_num_in_ports_tensor_core                    1 # number of collector unit in ports (default = 1)
-gpgpu_operand_collector_num_in_ports_mem                    1 # number of collector unit in ports (default = 1)
-gpgpu_operand_collector_num_in_ports_gen                    8 # number of collector unit in ports (default = 0)
-gpgpu_operand_collector_num_out_ports_sp                    1 # number of collector unit in ports (default = 1)
-gpgpu_operand_collector_num_out_ports_dp                    0 # number of collector unit in ports (default = 0)
-gpgpu_operand_collector_num_out_ports_sfu                    1 # number of collector unit in ports (default = 1)
-gpgpu_operand_collector_num_out_ports_int                    0 # number of collector unit in ports (default = 0)
-gpgpu_operand_collector_num_out_ports_tensor_core                    1 # number of collector unit in ports (default = 1)
-gpgpu_operand_collector_num_out_ports_mem                    1 # number of collector unit in ports (default = 1)
-gpgpu_operand_collector_num_out_ports_gen                    8 # number of collector unit in ports (default = 0)
-gpgpu_coalesce_arch                   75 # Coalescing arch (GT200 = 13, Fermi = 20)
-gpgpu_num_sched_per_core                    1 # Number of warp schedulers per core
-gpgpu_max_insn_issue_per_warp                    1 # Max number of instructions that can be issued per warp in one cycle by scheduler (either 1 or 2)
-gpgpu_dual_issue_diff_exec_units                    1 # should dual issue use two different execution unit resources (Default = 1)
-gpgpu_simt_core_sim_order                    1 # Select the simulation order of cores in a cluster (0=Fix, 1=Round-Robin)
-gpgpu_pipeline_widths 4,4,4,4,4,4,4,4,4,4,8,4,4 # Pipeline widths ID_OC_SP,ID_OC_DP,ID_OC_INT,ID_OC_SFU,ID_OC_MEM,OC_EX_SP,OC_EX_DP,OC_EX_INT,OC_EX_SFU,OC_EX_MEM,EX_WB,ID_OC_TENSOR_CORE,OC_EX_TENSOR_CORE
-gpgpu_tensor_core_avail                    1 # Tensor Core Available (default=0)
-gpgpu_num_sp_units                     4 # Number of SP units (default=1)
-gpgpu_num_dp_units                     1 # Number of DP units (default=0)
-gpgpu_num_int_units                    1 # Number of INT units (default=0)
-gpgpu_num_sfu_units                    1 # Number of SF units (default=1)
-gpgpu_num_tensor_core_units                    4 # Number of tensor_core units (default=1)
-gpgpu_num_mem_units                    1 # Number if ldst units (default=1) WARNING: not hooked up to anything
-gpgpu_scheduler                      old # Scheduler configuration: < lrr | gto | two_level_active > If two_level_active:<num_active_warps>:<inner_prioritization>:<outer_prioritization>For complete list of prioritization values see shader.h enum scheduler_prioritization_typeDefault: gto
-gpgpu_concurrent_kernel_sm                    0 # Support concurrent kernels on a SM (default = disabled)
-gpgpu_perfect_inst_const_cache                    1 # perfect inst and const cache mode, so all inst and const hits in the cache(default = disabled)
-gpgpu_inst_fetch_throughput                    4 # the number of fetched intruction per warp each cycle
-gpgpu_reg_file_port_throughput                    2 # the number ports of the register file
-specialized_unit_1         0,4,4,4,4,BRA # specialized unit config {<enabled>,<num_units>:<latency>:<initiation>,<ID_OC_SPEC>:<OC_EX_SPEC>,<NAME>}
-specialized_unit_2         0,4,4,4,4,BRA # specialized unit config {<enabled>,<num_units>:<latency>:<initiation>,<ID_OC_SPEC>:<OC_EX_SPEC>,<NAME>}
-specialized_unit_3         0,4,4,4,4,BRA # specialized unit config {<enabled>,<num_units>:<latency>:<initiation>,<ID_OC_SPEC>:<OC_EX_SPEC>,<NAME>}
-specialized_unit_4         0,4,4,4,4,BRA # specialized unit config {<enabled>,<num_units>:<latency>:<initiation>,<ID_OC_SPEC>:<OC_EX_SPEC>,<NAME>}
-specialized_unit_5         0,4,4,4,4,BRA # specialized unit config {<enabled>,<num_units>:<latency>:<initiation>,<ID_OC_SPEC>:<OC_EX_SPEC>,<NAME>}
-specialized_unit_6         0,4,4,4,4,BRA # specialized unit config {<enabled>,<num_units>:<latency>:<initiation>,<ID_OC_SPEC>:<OC_EX_SPEC>,<NAME>}
-specialized_unit_7         0,4,4,4,4,BRA # specialized unit config {<enabled>,<num_units>:<latency>:<initiation>,<ID_OC_SPEC>:<OC_EX_SPEC>,<NAME>}
-specialized_unit_8         0,4,4,4,4,BRA # specialized unit config {<enabled>,<num_units>:<latency>:<initiation>,<ID_OC_SPEC>:<OC_EX_SPEC>,<NAME>}
-gpgpu_perf_sim_memcpy                    1 # Fill the L2 cache on memcpy
-gpgpu_simple_dram_model                    0 # simple_dram_model with fixed latency and BW
-gpgpu_dram_scheduler                    1 # 0 = fifo, 1 = FR-FCFS (defaul)
-gpgpu_dram_partition_queues          64:64:64:64 # i2$:$2d:d2$:$2i
-l2_ideal                               0 # Use a ideal L2 cache that always hit
-gpgpu_cache:dl2     S:64:128:16,L:B:m:L:P,A:192:4,32:0,32 # unified banked L2 data cache config  {<nsets>:<bsize>:<assoc>,<rep>:<wr>:<alloc>:<wr_alloc>,<mshr>:<N>:<merge>,<mq>}
-gpgpu_cache:dl2_texture_only                    0 # L2 cache used for texture only
-gpgpu_n_mem                           12 # number of memory modules (e.g. memory controllers) in gpu
-gpgpu_n_sub_partition_per_mchannel                    2 # number of memory subpartition in each memory module
-gpgpu_n_mem_per_ctrlr                    1 # number of memory chips per memory controller
-gpgpu_memlatency_stat                   14 # track and display latency statistics 0x2 enables MC, 0x4 enables queue logs
-gpgpu_frfcfs_dram_sched_queue_size                   64 # 0 = unlimited (default); # entries per chip
-gpgpu_dram_return_queue_size                  192 # 0 = unlimited (default); # entries per chip
-gpgpu_dram_buswidth                    2 # default = 4 bytes (8 bytes per cycle at DDR)
-gpgpu_dram_burst_length                   16 # Burst length of each DRAM request (default = 4 data bus cycle)
-dram_data_command_freq_ratio                    4 # Frequency ratio between DRAM data bus and command bus (default = 2 times, i.e. DDR)
-gpgpu_dram_timing_opt nbk=16:CCD=4:RRD=12:RCD=24:RAS=55:RP=24:RC=78:CL=24:WL=8:CDLR=10:WR=24:nbkgrp=4:CCDL=6:RTPL=4 # DRAM timing parameters = {nbk:tCCD:tRRD:tRCD:tRAS:tRP:tRC:CL:WL:tCDLR:tWR:nbkgrp:tCCDL:tRTPL}
-gpgpu_l2_rop_latency                  194 # ROP queue latency (default 85)
-dram_latency                          96 # DRAM latency (default 30)
-dram_dual_bus_interface                    0 # dual_bus_interface (default = 0) 
-dram_bnk_indexing_policy                    0 # dram_bnk_indexing_policy (0 = normal indexing, 1 = Xoring with the higher bits) (Default = 0)
-dram_bnkgrp_indexing_policy                    1 # dram_bnkgrp_indexing_policy (0 = take higher bits, 1 = take lower bits) (Default = 0)
-dram_seperate_write_queue_enable                    0 # Seperate_Write_Queue_Enable
-dram_write_queue_size             32:28:16 # Write_Queue_Size
-dram_elimnate_rw_turnaround                    0 # elimnate_rw_turnaround i.e set tWTR and tRTW = 0
-icnt_flit_size                        40 # icnt_flit_size
-gpgpu_mem_addr_mapping dramid@8;00000000.00000000.00000000.00000000.0000RRRR.RRRRRRRR.RBBBCCCC.BCCSSSSS # mapping memory address to dram model {dramid@<start bit>;<memory address map>}
-gpgpu_mem_addr_test                    0 # run sweep test to check address mapping for aliased address
-gpgpu_mem_address_mask                    1 # 0 = old addressing mask, 1 = new addressing mask, 2 = new add. mask + flipped bank sel and chip sel bits
-gpgpu_memory_partition_indexing                    0 # 0 = no indexing, 1 = bitwise xoring, 2 = IPoly, 3 = custom indexing
-accelwattch_xml_file accelwattch_sass_sim.xml # AccelWattch XML file
-power_simulation_enabled                    0 # Turn on power simulator (1=On, 0=Off)
-power_per_cycle_dump                    0 # Dump detailed power output each cycle
-hw_perf_file_name            hw_perf.csv # Hardware Performance Statistics file
-hw_perf_bench_name                       # Kernel Name in Hardware Performance Statistics file
-power_simulation_mode                    0 # Switch performance counter input for power simulation (0=Sim, 1=HW, 2=HW-Sim Hybrid)
-dvfs_enabled                           0 # Turn on DVFS for power model
-aggregate_power_stats                    0 # Accumulate power across all kernels
-accelwattch_hybrid_perfsim_L1_RH                    0 # Get L1 Read Hits for Accelwattch-Hybrid from Accel-Sim
-accelwattch_hybrid_perfsim_L1_RM                    0 # Get L1 Read Misses for Accelwattch-Hybrid from Accel-Sim
-accelwattch_hybrid_perfsim_L1_WH                    0 # Get L1 Write Hits for Accelwattch-Hybrid from Accel-Sim
-accelwattch_hybrid_perfsim_L1_WM                    0 # Get L1 Write Misses for Accelwattch-Hybrid from Accel-Sim
-accelwattch_hybrid_perfsim_L2_RH                    0 # Get L2 Read Hits for Accelwattch-Hybrid from Accel-Sim
-accelwattch_hybrid_perfsim_L2_RM                    0 # Get L2 Read Misses for Accelwattch-Hybrid from Accel-Sim
-accelwattch_hybrid_perfsim_L2_WH                    0 # Get L2 Write Hits for Accelwattch-Hybrid from Accel-Sim
-accelwattch_hybrid_perfsim_L2_WM                    0 # Get L2 Write Misses for Accelwattch-Hybrid from Accel-Sim
-accelwattch_hybrid_perfsim_CC_ACC                    0 # Get Constant Cache Acesses for Accelwattch-Hybrid from Accel-Sim
-accelwattch_hybrid_perfsim_SHARED_ACC                    0 # Get Shared Memory Acesses for Accelwattch-Hybrid from Accel-Sim
-accelwattch_hybrid_perfsim_DRAM_RD                    0 # Get DRAM Reads for Accelwattch-Hybrid from Accel-Sim
-accelwattch_hybrid_perfsim_DRAM_WR                    0 # Get DRAM Writes for Accelwattch-Hybrid from Accel-Sim
-accelwattch_hybrid_perfsim_NOC                    0 # Get Interconnect Acesses for Accelwattch-Hybrid from Accel-Sim
-accelwattch_hybrid_perfsim_PIPE_DUTY                    0 # Get Pipeline Duty Cycle Acesses for Accelwattch-Hybrid from Accel-Sim
-accelwattch_hybrid_perfsim_NUM_SM_IDLE                    0 # Get Number of Idle SMs for Accelwattch-Hybrid from Accel-Sim
-accelwattch_hybrid_perfsim_CYCLES                    0 # Get Executed Cycles for Accelwattch-Hybrid from Accel-Sim
-accelwattch_hybrid_perfsim_VOLTAGE                    0 # Get Chip Voltage for Accelwattch-Hybrid from Accel-Sim
-power_trace_enabled                    0 # produce a file for the power trace (1=On, 0=Off)
-power_trace_zlevel                     6 # Compression level of the power trace output log (0=no comp, 9=highest)
-steady_power_levels_enabled                    0 # produce a file for the steady power levels (1=On, 0=Off)
-steady_state_definition                  8:4 # allowed deviation:number of samples
-gpgpu_max_cycle                        0 # terminates gpu simulation early (0 = no limit)
-gpgpu_max_insn                         0 # terminates gpu simulation early (0 = no limit)
-gpgpu_max_cta                          0 # terminates gpu simulation early (0 = no limit)
-gpgpu_max_completed_cta                    0 # terminates gpu simulation early (0 = no limit)
-gpgpu_runtime_stat                   500 # display runtime statistics such as dram utilization {<freq>:<flag>}
-liveness_message_freq                    1 # Minimum number of seconds between simulation liveness messages (0 = always print)
-gpgpu_compute_capability_major                    7 # Major compute capability version number
-gpgpu_compute_capability_minor                    5 # Minor compute capability version number
-gpgpu_flush_l1_cache                    1 # Flush L1 cache at the end of each kernel call
-gpgpu_flush_l2_cache                    0 # Flush L2 cache at the end of each kernel call
-gpgpu_deadlock_detect                    1 # Stop the simulation at deadlock (1=on (default), 0=off)
-gpgpu_ptx_instruction_classification                    1 # if enabled will classify ptx instruction types per kernel (Max 255 kernels now)
-gpgpu_ptx_sim_mode                     0 # Select between Performance (default) or Functional simulation (1)
-gpgpu_clock_domains 1365:1365:1365:3500.5 # Clock Domain Frequencies in MhZ {<Core Clock>:<ICNT Clock>:<L2 Clock>:<DRAM Clock>}
-gpgpu_max_concurrent_kernel                    8 # maximum kernels that can run concurrently on GPU
-gpgpu_cflog_interval                    0 # Interval between each snapshot in control flow logger
-visualizer_enabled                     0 # Turn on visualizer output (1=On, 0=Off)
-visualizer_outputfile                 NULL # Specifies the output log file for visualizer
-visualizer_zlevel                      6 # Compression level of the visualizer output log (0=no comp, 9=highest)
-gpgpu_stack_size_limit                 1024 # GPU thread stack size
-gpgpu_heap_size_limit              8388608 # GPU malloc heap size 
-gpgpu_runtime_sync_depth_limit                    2 # GPU device runtime synchronize depth
-gpgpu_runtime_pending_launch_count_limit                 2048 # GPU device runtime pending launch count
-trace_enabled                          0 # Turn on traces
-trace_components          WARP_SCHEDULER # comma seperated list of traces to enable. Complete list found in trace_streams.tup. Default none
-trace_sampling_core                    0 # The core which is printed using CORE_DPRINTF. Default 0
-trace_sampling_memory_partition                   -1 # The memory partition which is printed using MEMPART_DPRINTF. Default -1 (i.e. all)
-enable_ptx_file_line_stats                    1 # Turn on PTX source line statistic profiling. (1 = On)
-ptx_line_stats_filename gpgpu_inst_stats.txt # Output file for PTX source line statistics.
-gpgpu_kernel_launch_latency                 5000 # Kernel launch latency in cycles. Default: 0
-gpgpu_cdp_enabled                      0 # Turn on CDP
-gpgpu_TB_launch_latency                    0 # thread block launch latency in cycles. Default: 0
DRAM Timing Options:
nbk                                    16 # number of banks
CCD                                     4 # column to column delay
RRD                                    12 # minimal delay between activation of rows in different banks
RCD                                    24 # row to column dela4364acff7303e23f1747088cb940318e  /home/lzydaphne/gpgpu-sim_distribution/CUDAsample/wmma_example_tcsp
Extracting PTX file and ptxas options    1: wmma_example_tcsp.1.sm_75.ptx -arch=sm_75
y
RAS                                    55 # time needed to activate row
RP                                     24 # time needed to precharge (deactivate) row
RC                                     78 # row cycle time
CDLR                                   10 # switching from write to read (changes tWTR)
WR                                     24 # last data-in to row precharge
CL                                     24 # CAS latency
WL                                      8 # Write latency
nbkgrp                                  4 # number of bank groups
CCDL                                    6 # column to column delay between accesses to different bank groups
RTPL                                    4 # read to precharge delay between accesses to different bank groups
Total number of memory sub partition = 24
addr_dec_mask[CHIP]  = 0000000000000000 	high:64 low:0
addr_dec_mask[BK]    = 0000000000007080 	high:15 low:7
addr_dec_mask[ROW]   = 000000000fff8000 	high:28 low:15
addr_dec_mask[COL]   = 0000000000000f7f 	high:12 low:0
addr_dec_mask[BURST] = 000000000000001f 	high:5 low:0
sub_partition_id_mask = 0000000000000080
GPGPU-Sim uArch: clock freqs: 1365000000.000000:1365000000.000000:1365000000.000000:3500500000.000000
GPGPU-Sim uArch: clock periods: 0.00000000073260073260:0.00000000073260073260:0.00000000073260073260:0.00000000028567347522
*** Initializing Memory Statistics ***
GPGPU-Sim uArch: performance model initialization complete.
GPGPU-Sim: Configuring the simulator, max_concurrent_kernel: 8
m_pipeline_reg[ID_OC_SP].get_size(): 4
m_pipeline_reg[ID_OC_SP].get_size(): 4
m_pipeline_reg[ID_OC_SP].get_size(): 4
m_pipeline_reg[ID_OC_SP].get_size(): 4
Starting GPU simulation thread
self exe links to: /home/lzydaphne/gpgpu-sim_distribution/CUDAsample/wmma_example_tcsp
self exe links to: /home/lzydaphne/gpgpu-sim_distribution/CUDAsample/wmma_example_tcsp
11.0
GPGPU-Sim PTX: __cudaRegisterFatBinary, fat_cubin_handle = 1, filename=default
self exe links to: /home/lzydaphne/gpgpu-sim_distribution/CUDAsample/wmma_example_tcsp
Running md5sum using "md5sum /home/lzydaphne/gpgpu-sim_distribution/CUDAsample/wmma_example_tcsp "
self exe links to: /home/lzydaphne/gpgpu-sim_distribution/CUDAsample/wmma_example_tcsp
Extracting specific PTX file named wmma_example_tcsp.1.sm_75.ptx 
GPGPU-Sim PTX: __cudaRegisterFunction _Z17convertFp32ToFp16P6__halfPfi : hostFun 0x0x60262b291155, fat_cubin_handle = 1
GPGPU-Sim PTX: Parsing wmma_example_tcsp.1.sm_75.ptx
GPGPU-Sim PTX: Warning -- ignoring pragma 'nounroll'
GPGPU-Sim PTX: instruction assembly for function '_Z21wmma_example_originalP6__halfS0_Pfiiiff'...   done.
GPGPU-Sim PTX: Warning -- ignoring pragma 'nounroll'
GPGPU-Sim PTX: instruction assembly for function '_Z12wmma_exampleP6__halfS0_Pfiiiff'...   done.
GPGPU-Sim PTX: instruction assembly for function '_Z17convertFp32ToFp16P6__halfPfi'...   done.
GPGPU-Sim PTX: finished parsing EMBEDDED .ptx file wmma_example_tcsp.1.sm_75.ptx
GPGPU-Sim PTX: loading globals with explicit initializers... 
GPGPU-Sim PTX: finished loading globals (0 bytes total).
GPGPU-Sim PTX: loading constants with explicit initializers...  done.
GPGPU-Sim PTX: Loading PTXInfo from wmma_example_tcsp.1.sm_75.ptx
GPGPU-Sim PTX: Kernel '_Z17convertFp32ToFp16P6__halfPfi' : regs=10, lmem=0, smem=0, cmem=372
GPGPU-Sim PTX: Kernel '_Z12wmma_exampleP6__halfS0_Pfiiiff' : regs=30, lmem=0, smem=0, cmem=396
GPGPU-Sim PTX: Kernel '_Z21wmma_example_originalP6__halfS0_Pfiiiff' : regs=33, lmem=0, smem=0, cmem=396
GPGPU-Sim PTX: __cudaRegisterFunction _Z12wmma_exampleP6__halfS0_Pfiiiff : hostFun 0x0x60262b290fa1, fat_cubin_handle = 1
GPGPU-Sim PTX: __cudaRegisterFunction _Z21wmma_example_originalP6__halfS0_Pfiiiff : hostFun 0x0x60262b290d4a, fat_cubin_handle = 1
GPGPU-Sim: ** simulation thread waiting for work **
reach: add debug information
GPGPU-Sim: ** simulation thread waiting for work **
reach: add debug information
GPGPU-Sim: ** simulation thread waiting for work **
reach: add debug information
GPGPU-Sim PTX: Setting up arguments for 8 bytes starting at 0x7fff6748b978..
GPGPU-Sim PTX: Setting up arguments for 8 bytes starting at 0x7fff6748b970..
GPGPU-Sim PTX: Setting up arguments for 4 bytes starting at 0x7fff6748b96c..

GPGPU-Sim PTX: cudaLaunch for 0x0x60262b291155 (mode=performance simulation) on stream 0
GPGPU-Sim PTX: finding reconvergence points for '_Z17convertFp32ToFp16P6__halfPfi'...
GPGPU-Sim PTX: Finding dominators for '_Z17convertFp32ToFp16P6__halfPfi'...
GPGPU-Sim PTX: Finding immediate dominators for '_Z17convertFp32ToFp16P6__halfPfi'...
GPGPU-Sim PTX: Finding postdominators for '_Z17convertFp32ToFp16P6__halfPfi'...
GPGPU-Sim PTX: Finding immediate postdominators for '_Z17convertFp32ToFp16P6__halfPfi'...
GPGPU-Sim PTX: pre-decoding instructions for '_Z17convertFp32ToFp16P6__halfPfi'...
GPGPU-Sim PTX: reconvergence points for _Z17convertFp32ToFp16P6__halfPfi...
GPGPU-Sim PTX:  1 (potential) branch divergence @  PC=0x7b8 (wmma_example_tcsp.1.sm_75.ptx:360) @%p1 bra $L__BB2_2;
GPGPU-Sim PTX:    immediate post dominator      @  PC=0x808 (wmma_example_tcsp.1.sm_75.ptx:376) ret;
GPGPU-Sim PTX: ... end of reconvergence points for _Z17convertFp32ToFp16P6__halfPfi
GPGPU-Sim PTX: ... done pre-decoding instructions for '_Z17convertFp32ToFp16P6__halfPfi'.
GPGPU-Sim PTX: pushing kernel '_Z17convertFp32ToFp16P6__halfPfi' to stream 0, gridDim= (128,1,1) blockDim = (32,1,1) 
GPGPU-Sim: ** simulation thread waiting for work **
GPGPU-Sim: ** simulation thread waiting for work **
GPGPU-Sim: ** simulation thread waiting for work **
GPGPU-Sim: ** simulation thread waiting for work **
GPGPU-Sim: ** simulation thread waiting for work **
GPGPU-Sim: ** simulation thread waiting for work **
GPGPU-Sim: ** simulation thread waiting for work **
GPGPU-Sim: ** simulation thread waiting for work **
GPGPU-Sim: ** simulation thread waiting for work **
GPGPU-Sim: ** simulation thread waiting for work **
GPGPU-Sim: ** simulation thread waiting for work **
GPGPU-Sim: ** simulation thread waiting for work **
GPGPU-Sim: ** simulation thread waiting for work **
GPGPU-Sim: ** simulation thread waiting for work **
GPGPU-Sim: ** simulation thread waiting for work **
GPGPU-Sim: ** simulation thread waiting for work **
GPGPU-Sim: ** simulation thread waiting for work **
GPGPU-Sim: ** simulation thread waiting for work **
GPGPU-Sim: ** simulation thread waiting for work **
GPGPU-Sim: ** simulation thread waiting for work **
GPGPU-Sim: ** simulation thread waiting for work **
GPGPU-Sim: ** simulation thread waiting for work **
GPGPU-Sim: ** simulation thread waiting for work **
GPGPU-Sim: ** simulation thread waiting for work **
GPGPU-Sim: ** simulation thread waiting for work **
GPGPU-Sim: ** simulation thread waiting for work **
GPGPU-Sim: ** simulation thread waiting for work **
GPGPU-Sim: ** simulation thread waiting for work **
GPGPU-Sim: ** simulation thread waiting for work **
GPGPU-Sim: ** simulation thread waiting for work **
GPGPU-Sim: ** simulation thread waiting for work **
GPGPU-Sim: ** simulation thread waiting for work **
GPGPU-Sim: ** simulation thread waiting for work **
GPGPU-Sim: ** simulation thread waiting for work **
GPGPU-Sim: ** simulation thread waiting for work **
GPGPU-Sim: ** simulation thread waiting for work **
GPGPU-Sim: ** simulation thread waiting for work **
GPGPU-Sim: ** simulation thread waiting for work **
GPGPU-Sim: ** simulation thread waiting for work **
GPGPU-Sim: ** simulation thread waiting for work **
GPGPU-Sim: ** simulation thread waiting for work **
GPGPU-Sim: ** simulation thread waiting for work **
GPGPU-Sim: ** simulation thread waiting for work **
GPGPU-Sim: ** simulation thread waiting for work **
GPGPU-Sim: ** simulation thread waiting for work **
GPGPU-Sim: ** simulation thread waiting for work **
GPGPU-Sim: ** simulation thread waiting for work **
GPGPU-Sim: ** simulation thread waiting for work **
GPGPU-Sim: ** simulation thread waiting for work **
GPGPU-Sim: ** simulation thread waiting for work **
GPGPU-Sim: ** simulation thread waiting for work **
GPGPU-Sim: ** simulation thread waiting for work **
GPGPU-Sim: ** simulation thread waiting for work **
GPGPU-Sim: ** simulation thread waiting for work **
GPGPU-Sim: ** simulation thread waiting for work **
GPGPU-Sim: ** simulation thread waiting for work **
GPGPU-Sim: ** simulation thread waiting for work **
GPGPU-Sim: ** simulation thread waiting for work **
GPGPU-Sim: ** simulation thread waiting for work **
GPGPU-Sim: ** simulation thread waiting for work **
GPGPU-Sim: ** simulation thread waiting for work **
GPGPU-Sim: ** simulation thread waiting for work **
GPGPU-Sim: ** simulation thread waiting for work **
GPGPU-Sim: ** simulation thread waiting for work **
GPGPU-Sim: ** simulation thread waiting for work **
GPGPU-Sim: ** simulation thread waiting for work **
GPGPU-Sim: ** simulation thread waiting for work **
GPGPU-Sim: ** simulation thread waiting for work **
GPGPU-Sim: ** simulation thread waiting for work **
GPGPU-Sim: ** simulation thread waiting for work **
GPGPU-Sim: ** simulation thread waiting for work **
GPGPU-Sim: ** simulation thread waiting for work **
GPGPU-Sim: ** simulation thread waiting for work **
GPGPU-Sim: ** simulation thread waiting for work **
GPGPU-Sim: ** simulation thread waiting for work **
GPGPU-Sim: ** simulation thread waiting for work **
GPGPU-Sim: ** simulation thread waiting for work **
GPGPU-Sim: ** simulation thread waiting for work **
GPGPU-Sim: ** simulation thread waiting for work **
GPGPU-Sim: ** simulation thread waiting for work **
GPGPU-Sim: ** simulation thread waiting for work **
GPGPU-Sim: ** simulation thread waiting for work **
GPGPU-Sim: ** simulation thread waiting for work **
GPGPU-Sim: ** simulation thread waiting for work **
GPGPU-Sim: ** simulation thread waiting for work **
GPGPU-Sim: ** simulation thread waiting for work **
GPGPU-Sim: ** simulation thread waiting for work **
GPGPU-Sim: ** simulation thread waiting for work **
GPGPU-Sim: ** simulation thread waiting for work **
GPGPU-Sim: ** simulation thread waiting for work **
GPGPU-Sim: ** simulation thread waiting for work **
GPGPU-Sim: ** simulation thread waiting for work **
GPGPU-Sim: ** simulation thread waiting for work **
GPGPU-Sim: ** simulation thread waiting for work **
GPGPU-Sim: ** simulation thread waiting for work **
GPGPU-Sim: ** simulation thread waiting for work **
GPGPU-Sim: ** simulation thread waiting for work **
GPGPU-Sim: ** simulation thread waiting for work **
GPGPU-Sim: ** simulation thread waiting for work **
GPGPU-Sim: ** simulation thread waiting for work **
GPGPU-Sim: ** simulation thread waiting for work **
GPGPU-Sim: ** simulation thread waiting for work **
GPGPU-Sim: ** simulation thread waiting for work **
GPGPU-Sim: ** simulation thread waiting for work **
GPGPU-Sim: ** simulation thread waiting for work **
GPGPU-Sim: ** simulation thread waiting for work **
GPGPU-Sim: ** simulation thread waiting for work **
GPGPU-Sim: ** simulation thread waiting for work **
GPGPU-Sim: ** simulation thread waiting for work **
GPGPU-Sim: ** simulation thread waiting for work **
GPGPU-Sim: ** simulation thread waiting for work **
GPGPU-Sim: ** simulation thread waiting for work **
GPGPU-Sim: ** simulation thread waiting for work **
GPGPU-Sim: ** simulation thread waiting for work **
GPGPU-Sim: ** simulation thread waiting for work **
GPGPU-Sim: ** simulation thread waiting for work **
GPGPU-Sim: ** simulation thread waiting for work **
GPGPU-Sim: ** simulation thread waiting for work **
GPGPU-Sim: ** simulation thread waiting for work **
GPGPU-Sim: ** simulation thread waiting for work **
GPGPU-Sim: ** simulation thread waiting for work **
GPGPU-Sim: ** simulation thread waiting for work **
GPGPU-Sim: ** simulation thread waiting for work **
GPGPU-Sim: ** simulation thread waiting for work **
GPGPU-Sim: ** simulation thread waiting for work **
GPGPU-Sim: ** simulation thread waiting for work **
GPGPU-Sim: ** simulation thread waiting for work **
GPGPU-Sim: ** simulation thread waiting for work **
GPGPU-Sim: ** simulation thread waiting for work **
GPGPU-Sim: ** simulation thread waiting for work **
GPGPU-Sim: ** simulation thread waiting for work **
GPGPU-Sim: ** simulation thread waiting for work **
GPGPU-Sim: ** simulation thread waiting for work **
GPGPU-Sim: ** simulation thread waiting for work **
GPGPU-Sim: ** simulation thread waiting for work **
GPGPU-Sim: ** simulation thread waiting for work **
GPGPU-Sim: ** simulation thread waiting for work **
GPGPU-Sim: ** simulation thread waiting for work **
GPGPU-Sim: ** simulation thread waiting for work **
GPGPU-Sim: ** simulation thread waiting for work **
GPGPU-Sim: ** simulation thread waiting for work **
GPGPU-Sim: ** simulation thread waiting for work **
GPGPU-Sim: ** simulation thread waiting for work **
GPGPU-Sim: ** simulation thread waiting for work **
GPGPU-Sim: ** simulation thread waiting for work **
GPGPU-Sim: ** simulation thread waiting for work **
GPGPU-Sim: ** simulation thread waiting for work **
GPGPU-Sim: ** simulation thread waiting for work **
GPGPU-Sim: ** simulation thread waiting for work **
GPGPU-Sim: ** simulation thread waiting for work **
GPGPU-Sim: ** simulation thread waiting for work **
GPGPU-Sim: ** simulation thread waiting for work **
GPGPU-Sim: ** simulation thread waiting for work **
GPGPU-Sim: ** simulation thread waiting for work **
GPGPU-Sim: ** simulation thread waiting for work **
GPGPU-Sim: ** simulation thread waiting for work **
GPGPU-Sim: ** simulation thread waiting for work **
GPGPU-Sim: ** simulation thread waiting for work **
GPGPU-Sim: ** simulation thread waiting for work **
GPGPU-Sim: ** simulation thread waiting for work **
GPGPU-Sim: ** simulation thread waiting for work **
GPGPU-Sim: ** simulation thread waiting for work **
GPGPU-Sim: ** simulation thread waiting for work **
GPGPU-Sim: ** simulation thread waiting for work **
GPGPU-Sim: ** simulation thread waiting for work **
GPGPU-Sim: ** simulation thread waiting for work **
GPGPU-Sim: ** simulation thread waiting for work **
GPGPU-Sim: ** simulation thread waiting for work **
GPGPU-Sim: ** simulation thread waiting for work **
GPGPU-Sim: ** simulation thread waiting for work **
GPGPU-Sim: ** simulation thread waiting for work **
GPGPU-Sim: ** simulation thread waiting for work **
GPGPU-Sim: ** simulation thread waiting for work **
GPGPU-Sim: ** simulation thread waiting for work **
GPGPU-Sim: ** simulation thread waiting for work **
GPGPU-Sim: ** simulation thread waiting for work **
GPGPU-Sim: ** simulation thread waiting for work **
GPGPU-Sim: ** simulation thread waiting for work **
GPGPU-Sim: ** simulation thread waiting for work **
GPGPU-Sim: ** simulation thread waiting for work **
GPGPU-Sim: ** simulation thread waiting for work **
GPGPU-Sim: ** simulation thread waiting for work **
GPGPU-Sim: ** simulation thread waiting for work **
GPGPU-Sim: ** simulation thread waiting for work **
GPGPU-Sim: ** simulation thread waiting for work **
GPGPU-Sim: ** simulation thread waiting for work **
GPGPU-Sim: ** simulation thread waiting for work **
GPGPU-Sim: ** simulation thread waiting for work **
GPGPU-Sim: ** simulation thread waiting for work **
GPGPU-Sim: ** simulation thread waiting for work **
GPGPU-Sim: ** simulation thread waiting for work **
GPGPU-Sim: ** simulation thread waiting for work **
GPGPU-Sim: ** simulation thread waiting for work **
GPGPU-Sim: ** simulation thread waiting for work **
GPGPU-Sim: ** simulation thread waiting for work **
GPGPU-Sim: ** simulation thread waiting for work **
GPGPU-Sim: ** simulation thread waiting for work **
GPGPU-Sim: ** simulation thread waiting for work **
GPGPU-Sim: ** simulation thread waiting for work **
GPGPU-Sim: ** simulation thread waiting for work **
GPGPU-Sim: ** simulation thread waiting for work **
GPGPU-Sim: ** simulation thread waiting for work **
GPGPU-Sim: ** simulation thread waiting for work **
GPGPU-Sim: ** simulation thread waiting for work **
GPGPU-Sim: ** simulation thread waiting for work **
GPGPU-Sim: ** simulation thread waiting for work **
GPGPU-Sim: ** simulation thread waiting for work **
GPGPU-Sim: ** simulation thread waiting for work **
GPGPU-Sim: ** simulation thread waiting for work **
GPGPU-Sim: ** simulation thread waiting for work **
GPGPU-Sim: ** simulation thread waiting for work **
GPGPU-Sim: ** simulation thread waiting for work **
GPGPU-Sim: ** simulation thread waiting for work **
GPGPU-Sim: ** simulation thread waiting for work **
GPGPU-Sim: ** simulation thread waiting for work **
GPGPU-Sim: ** simulation thread waiting for work **
GPGPU-Sim: ** simulation thread waiting for work **
GPGPU-Sim: ** simulation thread waiting for work **
GPGPU-Sim: ** simulation thread waiting for work **
GPGPU-Sim: ** simulation thread waiting for work **
GPGPU-Sim: ** simulation thread waiting for work **
GPGPU-Sim: ** simulation thread waiting for work **
GPGPU-Sim: ** simulation thread waiting for work **
GPGPU-Sim: ** simulation thread waiting for work **
GPGPU-Sim: ** simulation thread waiting for work **
GPGPU-Sim: ** simulation thread waiting for work **
GPGPU-Sim: ** simulation thread waiting for work **
GPGPU-Sim: ** simulation thread waiting for work **
GPGPU-Sim: ** simulation thread waiting for work **
GPGPU-Sim: ** simulation thread waiting for work **
GPGPU-Sim: ** simulation thread waiting for work **
GPGPU-Sim: ** simulation thread waiting for work **
GPGPU-Sim: ** simulation thread waiting for work **
GPGPU-Sim: ** simulation thread waiting for work **
GPGPU-Sim: ** simulation thread waiting for work **
GPGPU-Sim: ** simulation thread waiting for work **
GPGPU-Sim: ** simulation thread waiting for work **
GPGPU-Sim: ** simulation thread waiting for work **
GPGPU-Sim: ** simulation thread waiting for work **
GPGPU-Sim: ** simulation thread waiting for work **
GPGPU-Sim: ** simulation thread waiting for work **
GPGPU-Sim: ** simulation thread waiting for work **
GPGPU-Sim: ** simulation thread waiting for work **
GPGPU-Sim: ** simulation thread waiting for work **
GPGPU-Sim: ** simulation thread waiting for work **
GPGPU-Sim: ** simulation thread waiting for work **
GPGPU-Sim: ** simulation thread waiting for work **
GPGPU-Sim: ** simulation thread waiting for work **
GPGPU-Sim: ** simulation thread waiting for work **
GPGPU-Sim: ** simulation thread waiting for work **
GPGPU-Sim: ** simulation thread waiting for work **
GPGPU-Sim: ** simulation thread waiting for work **
GPGPU-Sim: ** simulation thread waiting for work **
GPGPU-Sim: ** simulation thread waiting for work **
GPGPU-Sim: ** simulation thread waiting for work **
GPGPU-Sim: ** simulation thread waiting for work **
GPGPU-Sim: ** simulation thread waiting for work **
GPGPU-Sim: ** simulation thread waiting for work **
GPGPU-Sim: ** simulation thread waiting for work **
GPGPU-Sim: ** simulation thread waiting for work **
GPGPU-Sim: ** simulation thread waiting for work **
GPGPU-Sim: ** simulation thread waiting for work **
GPGPU-Sim: ** simulation thread waiting for work **
GPGPU-Sim: ** simulation thread waiting for work **
GPGPU-Sim: ** simulation thread waiting for work **
GPGPU-Sim: ** simulation thread waiting for work **
GPGPU-Sim: ** simulation thread waiting for work **
GPGPU-Sim: ** simulation thread waiting for work **
GPGPU-Sim: ** simulation thread waiting for work **
GPGPU-Sim: ** simulation thread waiting for work **
GPGPU-Sim: ** simulation thread waiting for work **
GPGPU-Sim: ** simulation thread waiting for work **
GPGPU-Sim: ** simulation thread waiting for work **
GPGPU-Sim: ** simulation thread waiting for work **
GPGPU-Sim: ** simulation thread waiting for work **
GPGPU-Sim: ** simulation thread waiting for work **
GPGPU-Sim: ** simulation thread waiting for work **
GPGPU-Sim: ** simulation thread waiting for work **
GPGPU-Sim: ** simulation thread waiting for work **
GPGPU-Sim: ** simulation thread waiting for work **
GPGPU-Sim: ** simulation thread waiting for work **
GPGPU-Sim: ** simulation thread waiting for work **
GPGPU-Sim: ** simulation thread waiting for work **
GPGPU-Sim: ** simulation thread waiting for work **
GPGPU-Sim: ** simulation thread waiting for work **
GPGPU-Sim: ** simulation thread waiting for work **
GPGPU-Sim: ** simulation thread waiting for work **
GPGPU-Sim: ** simulation thread waiting for work **
GPGPU-Sim: ** simulation thread waiting for work **
GPGPU-Sim: ** simulation thread waiting for work **
GPGPU-Sim: ** simulation thread waiting for work **
GPGPU-Sim: ** simulation thread waiting for work **
GPGPU-Sim: ** simulation thread waiting for work **
GPGPU-Sim: ** simulation thread waiting for work **
GPGPU-Sim: ** simulation thread waiting for work **
GPGPU-Sim: ** simulation thread waiting for work **
GPGPU-Sim: ** simulation thread waiting for work **
GPGPU-Sim: ** simulation thread waiting for work **
GPGPU-Sim: ** simulation thread waiting for work **
GPGPU-Sim: ** simulation thread waiting for work **
GPGPU-Sim: ** simulation thread waiting for work **
GPGPU-Sim: ** simulation thread waiting for work **
GPGPU-Sim: ** simulation thread waiting for work **
GPGPU-Sim: ** simulation thread waiting for work **
GPGPU-Sim: ** simulation thread waiting for work **
GPGPU-Sim: ** simulation thread waiting for work **
GPGPU-Sim: ** simulation thread waiting for work **
GPGPU-Sim: ** simulation thread waiting for work **
GPGPU-Sim: ** simulation thread waiting for work **
GPGPU-Sim: ** simulation thread waiting for work **
GPGPU-Sim: ** simulation thread waiting for work **
GPGPU-Sim: ** simulation thread waiting for work **
GPGPU-Sim: ** simulation thread waiting for work **
GPGPU-Sim: ** simulation thread waiting for work **
GPGPU-Sim: ** simulation thread waiting for work **
GPGPU-Sim: ** simulation thread waiting for work **
GPGPU-Sim: ** simulation thread waiting for work **
GPGPU-Sim: ** simulation thread waiting for work **
GPGPU-Sim: ** simulation thread waiting for work **
GPGPU-Sim: ** simulation thread waiting for work **
GPGPU-Sim: ** simulation thread waiting for work **
GPGPU-Sim: ** simulation thread waiting for work **
GPGPU-Sim: ** simulation thread waiting for work **
GPGPU-Sim: ** simulation thread waiting for work **
GPGPU-Sim: ** simulation thread waiting for work **
GPGPU-Sim: ** simulation thread waiting for work **
GPGPU-Sim: ** simulation thread waiting for work **
GPGPU-Sim: ** simulation thread waiting for work **
GPGPU-Sim: ** simulation thread waiting for work **
GPGPU-Sim: ** simulation thread waiting for work **
GPGPU-Sim: ** simulation thread waiting for work **
GPGPU-Sim: ** simulation thread waiting for work **
GPGPU-Sim: ** simulation thread waiting for work **
GPGPU-Sim: ** simulation thread waiting for work **
GPGPU-Sim: ** simulation thread waiting for work **
GPGPU-Sim: ** simulation thread waiting for work **
GPGPU-Sim: ** simulation thread waiting for work **
GPGPU-Sim: ** simulation thread waiting for work **
GPGPU-Sim: ** simulation thread waiting for work **
GPGPU-Sim: ** simulation thread waiting for work **
GPGPU-Sim: ** simulation thread waiting for work **
GPGPU-Sim: ** simulation thread waiting for work **
GPGPU-Sim: ** simulation thread waiting for work **
GPGPU-Sim: ** simulation thread waiting for work **
GPGPU-Sim: ** simulation thread waiting for work **
GPGPU-Sim: ** simulation thread waiting for work **
GPGPU-Sim: ** simulation thread waiting for work **
GPGPU-Sim: ** simulation thread waiting for work **
GPGPU-Sim: ** simulation thread waiting for work **
GPGPU-Sim: ** simulation thread waiting for work **
GPGPU-Sim: ** simulation thread waiting for work **
GPGPU-Sim: ** simulation thread waiting for work **
GPGPU-Sim: ** simulation thread waiting for work **
GPGPU-Sim: ** simulation thread waiting for work **
GPGPU-Sim: ** simulation thread waiting for work **
GPGPU-Sim: ** simulation thread waiting for work **
GPGPU-Sim: ** simulation thread waiting for work **
GPGPU-Sim: ** simulation thread waiting for work **
GPGPU-Sim: ** simulation thread waiting for work **
GPGPU-Sim: ** simulation thread waiting for work **
GPGPU-Sim: ** simulation thread waiting for work **
GPGPU-Sim: ** simulation thread waiting for work **
GPGPU-Sim: ** simulation thread waiting for work **
GPGPU-Sim: ** simulation thread waiting for work **
GPGPU-Sim: ** simulation thread waiting for work **
GPGPU-Sim: ** simulation thread waiting for work **
GPGPU-Sim: ** simulation thread waiting for work **
GPGPU-Sim: ** simulation thread waiting for work **
GPGPU-Sim: ** simulation thread waiting for work **
GPGPU-Sim: ** simulation thread waiting for work **
GPGPU-Sim: ** simulation thread waiting for work **
GPGPU-Sim: ** simulation thread waiting for work **
GPGPU-Sim: ** simulation thread waiting for work **
GPGPU-Sim: ** simulation thread waiting for work **
GPGPU-Sim: ** simulation thread waiting for work **
GPGPU-Sim: ** simulation thread waiting for work **
GPGPU-Sim: ** simulation thread waiting for work **
GPGPU-Sim: ** simulation thread waiting for work **
GPGPU-Sim: ** simulation thread waiting for work **
GPGPU-Sim: ** simulation thread waiting for work **
GPGPU-Sim: ** simulation thread waiting for work **
GPGPU-Sim: ** simulation thread waiting for work **
GPGPU-Sim: ** simulation thread waiting for work **
GPGPU-Sim: ** simulation thread waiting for work **
GPGPU-Sim: ** simulation thread waiting for work **
GPGPU-Sim: ** simulation thread waiting for work **
GPGPU-Sim: ** simulation thread waiting for work **
GPGPU-Sim: ** simulation thread waiting for work **
GPGPU-Sim: ** simulation thread waiting for work **
GPGPU-Sim: ** simulation thread waiting for work **
GPGPU-Sim: ** simulation thread waiting for work **
GPGPU-Sim: ** simulation thread waiting for work **
GPGPU-Sim: ** simulation thread waiting for work **
GPGPU-Sim: ** simulation thread waiting for work **
GPGPU-Sim: ** simulation thread waiting for work **
GPGPU-Sim: ** simulation thread waiting for work **
GPGPU-Sim: ** simulation thread waiting for work **
GPGPU-Sim: ** simulation thread waiting for work **
GPGPU-Sim: ** simulation thread waiting for work **
GPGPU-Sim: ** simulation thread waiting for work **
GPGPU-Sim: ** simulation thread waiting for work **
GPGPU-Sim: ** simulation thread waiting for work **
GPGPU-Sim: ** simulation thread waiting for work **
GPGPU-Sim: ** simulation thread waiting for work **
GPGPU-Sim: ** simulation thread waiting for work **
GPGPU-Sim: ** simulation thread waiting for work **
GPGPU-Sim: ** simulation thread waiting for work **
GPGPU-Sim: ** simulation thread waiting for work **
GPGPU-Sim: ** simulation thread waiting for work **
GPGPU-Sim: ** simulation thread waiting for work **
GPGPU-Sim: ** simulation thread waiting for work **
GPGPU-Sim: ** simulation thread waiting for work **
GPGPU-Sim: ** simulation thread waiting for work **
GPGPU-Sim: ** simulation thread waiting for work **
GPGPU-Sim: ** simulation thread waiting for work **
GPGPU-Sim: ** simulation thread waiting for work **
GPGPU-Sim: ** simulation thread waiting for work **
GPGPU-Sim: ** simulation thread waiting for work **
GPGPU-Sim: ** simulation thread waiting for work **
GPGPU-Sim: ** simulation thread waiting for work **
GPGPU-Sim: ** simulation thread waiting for work **
GPGPU-Sim: ** simulation thread waiting for work **
GPGPU-Sim: ** simulation thread waiting for work **
GPGPU-Sim: ** simulation thread waiting for work **
GPGPU-Sim: ** simulation thread waiting for work **
GPGPU-Sim: ** simulation thread waiting for work **
GPGPU-Sim: ** simulation thread waiting for work **
GPGPU-Sim: ** simulation thread waiting for work **
GPGPU-Sim: ** simulation thread waiting for work **
GPGPU-Sim: ** simulation thread waiting for work **
GPGPU-Sim: ** simulation thread waiting for work **
GPGPU-Sim: ** simulation thread waiting for work **
GPGPU-Sim: ** simulation thread waiting for work **
GPGPU-Sim: ** simulation thread waiting for work **
GPGPU-Sim: ** simulation thread waiting for work **
GPGPU-Sim: ** simulation thread waiting for work **
GPGPU-Sim: ** simulation thread waiting for work **
GPGPU-Sim: ** simulation thread waiting for work **
GPGPU-Sim: ** simulation thread waiting for work **
GPGPU-Sim: ** simulation thread waiting for work **
GPGPU-Sim: ** simulation thread waiting for work **
GPGPU-Sim: ** simulation thread waiting for work **
GPGPU-Sim: ** simulation thread waiting for work **
GPGPU-Sim: ** simulation thread waiting for work **
GPGPU-Sim: ** simulation thread waiting for work **
GPGPU-Sim: ** simulation thread waiting for work **
GPGPU-Sim: ** simulation thread waiting for work **
GPGPU-Sim: ** simulation thread waiting for work **
GPGPU-Sim: ** simulation thread waiting for work **
GPGPU-Sim: ** simulation thread waiting for work **
GPGPU-Sim: ** simulation thread waiting for work **
GPGPU-Sim: ** simulation thread waiting for work **
GPGPU-Sim: ** simulation thread waiting for work **
GPGPU-Sim: ** simulation thread waiting for work **
GPGPU-Sim: ** simulation thread waiting for work **
GPGPU-Sim: ** simulation thread waiting for work **
GPGPU-Sim: ** simulation thread waiting for work **
GPGPU-Sim: ** simulation thread waiting for work **
GPGPU-Sim: ** simulation thread waiting for work **
GPGPU-Sim: ** simulation thread waiting for work **
GPGPU-Sim: ** simulation thread waiting for work **
GPGPU-Sim: ** simulation thread waiting for work **
GPGPU-Sim: ** simulation thread waiting for work **
GPGPU-Sim: ** simulation thread waiting for work **
GPGPU-Sim: ** simulation thread waiting for work **
GPGPU-Sim: ** simulation thread waiting for work **
GPGPU-Sim: ** simulation thread waiting for work **
GPGPU-Sim: ** simulation thread waiting for work **
GPGPU-Sim: ** simulation thread waiting for work **
GPGPU-Sim: ** simulation thread waiting for work **
GPGPU-Sim: ** simulation thread waiting for work **
GPGPU-Sim: ** simulation thread waiting for work **
GPGPU-Sim: ** simulation thread waiting for work **
GPGPU-Sim: ** simulation thread waiting for work **
GPGPU-Sim: ** simulation thread waiting for work **
GPGPU-Sim: ** simulation thread waiting for work **
GPGPU-Sim: ** simulation thread waiting for work **
GPGPU-Sim: ** simulation thread waiting for work **
GPGPU-Sim: ** simulation thread waiting for work **
GPGPU-Sim: ** simulation thread waiting for work **
GPGPU-Sim: ** simulation thread waiting for work **
GPGPU-Sim: ** simulation thread waiting for work **
GPGPU-Sim: ** simulation thread waiting for work **
GPGPU-Sim: ** simulation thread waiting for work **
GPGPU-Sim: ** simulation thread waiting for work **
GPGPU-Sim: ** simulation thread waiting for work **
GPGPU-Sim: ** simulation thread waiting for work **
GPGPU-Sim: ** simulation thread waiting for work **
GPGPU-Sim: ** simulation thread waiting for work **
GPGPU-Sim: ** simulation thread waiting for work **
GPGPU-Sim: ** simulation thread waiting for work **
GPGPU-Sim: ** simulation thread waiting for work **
GPGPU-Sim: ** simulation thread waiting for work **
GPGPU-Sim: ** simulation thread waiting for work **
GPGPU-Sim: ** simulation thread waiting for work **
GPGPU-Sim: ** simulation thread waiting for work **
GPGPU-Sim: ** simulation thread waiting for work **
GPGPU-Sim: ** simulation thread waiting for work **
GPGPU-Sim: ** simulation thread waiting for work **
GPGPU-Sim: ** simulation thread waiting for work **
GPGPU-Sim: ** simulation thread waiting for work **
GPGPU-Sim: ** simulation thread waiting for work **
GPGPU-Sim: ** simulation thread waiting for work **
GPGPU-Sim: ** simulation thread waiting for work **
GPGPU-Sim: ** simulation thread waiting for work **
GPGPU-Sim: ** simulation thread waiting for work **
GPGPU-Sim: ** simulation thread waiting for work **
GPGPU-Sim: ** simulation thread waiting for work **
GPGPU-Sim: ** simulation thread waiting for work **
GPGPU-Sim: ** simulation thread waiting for work **
GPGPU-Sim: ** simulation thread waiting for work **
GPGPU-Sim: ** simulation thread waiting for work **
GPGPU-Sim: ** simulation thread waiting for work **
GPGPU-Sim: ** simulation thread waiting for work **
GPGPU-Sim: ** simulation thread waiting for work **
GPGPU-Sim: ** simulation thread waiting for work **
GPGPU-Sim: ** simulation thread waiting for work **
GPGPU-Sim: ** simulation thread waiting for work **
GPGPU-Sim: ** simulation thread waiting for work **
GPGPU-Sim: ** simulation thread waiting for work **
GPGPU-Sim: ** simulation thread waiting for work **
GPGPU-Sim: ** simulation thread waiting for work **
GPGPU-Sim: ** simulation thread waiting for work **
GPGPU-Sim: ** simulation thread waiting for work **
GPGPU-Sim: ** simulation thread waiting for work **
GPGPU-Sim: ** simulation thread waiting for work **
GPGPU-Sim: ** simulation thread waiting for work **
GPGPU-Sim: ** simulation thread waiting for work **
GPGPU-Sim: ** simulation thread waiting for work **
GPGPU-Sim: ** simulation thread waiting for work **
GPGPU-Sim: ** simulation thread waiting for work **
GPGPU-Sim: ** simulation thread waiting for work **
GPGPU-Sim: ** simulation thread waiting for work **
GPGPU-Sim: ** simulation thread waiting for work **
GPGPU-Sim: ** simulation thread waiting for work **
GPGPU-Sim: ** simulation thread waiting for work **
GPGPU-Sim: ** simulation thread waiting for work **
GPGPU-Sim: ** simulation thread waiting for work **
GPGPU-Sim: ** simulation thread waiting for work **
GPGPU-Sim: ** simulation thread waiting for work **
GPGPU-Sim: ** simulation thread waiting for work **
GPGPU-Sim: ** simulation thread waiting for work **
GPGPU-Sim: ** simulation thread waiting for work **
GPGPU-Sim: ** simulation thread waiting for work **
GPGPU-Sim: ** simulation thread waiting for work **
GPGPU-Sim: ** simulation thread waiting for work **
GPGPU-Sim: ** simulation thread waiting for work **
GPGPU-Sim: ** simulation thread waiting for work **
GPGPU-Sim: ** simulation thread waiting for work **
GPGPU-Sim: ** simulation thread waiting for work **
GPGPU-Sim: ** simulation thread waiting for work **
GPGPU-Sim: ** simulation thread waiting for work **
GPGPU-Sim: ** simulation thread waiting for work **
GPGPU-Sim: ** simulation thread waiting for work **
GPGPU-Sim: ** simulation thread waiting for work **
GPGPU-Sim: ** simulation thread waiting for work **
GPGPU-Sim: ** simulation thread waiting for work **
GPGPU-Sim: ** simulation thread waiting for work **
GPGPU-Sim: ** simulation thread waiting for work **
GPGPU-Sim: ** simulation thread waiting for work **
GPGPU-Sim: ** simulation thread waiting for work **
GPGPU-Sim: ** simulation thread waiting for work **
GPGPU-Sim: ** simulation thread waiting for work **
GPGPU-Sim: ** simulation thread waiting for work **
GPGPU-Sim: ** simulation thread waiting for work **
GPGPU-Sim: ** simulation thread waiting for work **
GPGPU-Sim: ** simulation thread waiting for work **
GPGPU-Sim: ** simulation thread waiting for work **
GPGPU-Sim: ** simulation thread waiting for work **
GPGPU-Sim: ** simulation thread waiting for work **
GPGPU-Sim: ** simulation thread waiting for work **
GPGPU-Sim: ** simulation thread waiting for work **
GPGPU-Sim: ** simulation thread waiting for work **
GPGPU-Sim: ** simulation thread waiting for work **
GPGPU-Sim: ** simulation thread waiting for work **
GPGPU-Sim: ** simulation thread waiting for work **
GPGPU-Sim: ** simulation thread waiting for work **
GPGPU-Sim: ** simulation thread waiting for work **
GPGPU-Sim: ** simulation thread waiting for work **
GPGPU-Sim: ** simulation thread waiting for work **
GPGPU-Sim: ** simulation thread waiting for work **
GPGPU-Sim: ** simulation thread waiting for work **
GPGPU-Sim: ** simulation thread waiting for work **
GPGPU-Sim: ** simulation thread waiting for work **
GPGPU-Sim: ** simulation thread waiting for work **
GPGPU-Sim: ** simulation thread waiting for work **
GPGPU-Sim: ** simulation thread waiting for work **
GPGPU-Sim: ** simulation thread waiting for work **
GPGPU-Sim: ** simulation thread waiting for work **
GPGPU-Sim: ** simulation thread waiting for work **
GPGPU-Sim: ** simulation thread waiting for work **
GPGPU-Sim: ** simulation thread waiting for work **
GPGPU-Sim: ** simulation thread waiting for work **
GPGPU-Sim: ** simulation thread waiting for work **
GPGPU-Sim: ** simulation thread waiting for work **
GPGPU-Sim: ** simulation thread waiting for work **
GPGPU-Sim: ** simulation thread waiting for work **
GPGPU-Sim: ** simulation thread waiting for work **
GPGPU-Sim: ** simulation thread waiting for work **
GPGPU-Sim: ** simulation thread waiting for work **
GPGPU-Sim: ** simulation thread waiting for work **
GPGPU-Sim: ** simulation thread waiting for work **
GPGPU-Sim: ** simulation thread waiting for work **
GPGPU-Sim: ** simulation thread waiting for work **
GPGPU-Sim: ** simulation thread waiting for work **
GPGPU-Sim: ** simulation thread waiting for work **
GPGPU-Sim: ** simulation thread waiting for work **
GPGPU-Sim: ** simulation thread waiting for work **
GPGPU-Sim: ** simulation thread waiting for work **
GPGPU-Sim: ** simulation thread waiting for work **
GPGPU-Sim: ** simulation thread waiting for work **
GPGPU-Sim: ** simulation thread waiting for work **
GPGPU-Sim: ** simulation thread waiting for work **
GPGPU-Sim: ** simulation thread waiting for work **
GPGPU-Sim: ** simulation thread waiting for work **
GPGPU-Sim: ** simulation thread waiting for work **
GPGPU-Sim: ** simulation thread waiting for work **
GPGPU-Sim: ** simulation thread waiting for work **
GPGPU-Sim: ** simulation thread waiting for work **
GPGPU-Sim: ** simulation thread waiting for work **
GPGPU-Sim: ** simulation thread waiting for work **
GPGPU-Sim: ** simulation thread waiting for work **
GPGPU-Sim: ** simulation thread waiting for work **
GPGPU-Sim: ** simulation thread waiting for work **
GPGPU-Sim: ** simulation thread waiting for work **
GPGPU-Sim: ** simulation thread waiting for work **
GPGPU-Sim: ** simulation thread waiting for work **
GPGPU-Sim: ** simulation thread waiting for work **
GPGPU-Sim: ** simulation thread waiting for work **
GPGPU-Sim: ** simulation thread waiting for work **
GPGPU-Sim: ** simulation thread waiting for work **
GPGPU-Sim: ** simulation thread waiting for work **
GPGPU-Sim: ** simulation thread waiting for work **
GPGPU-Sim: ** simulation thread waiting for work **
GPGPU-Sim: ** simulation thread waiting for work **
GPGPU-Sim: ** simulation thread waiting for work **
GPGPU-Sim: ** simulation thread waiting for work **
GPGPU-Sim: ** simulation thread waiting for work **
GPGPU-Sim: ** simulation thread waiting for work **
GPGPU-Sim: ** simulation thread waiting for work **
GPGPU-Sim: ** simulation thread waiting for work **
GPGPU-Sim: ** simulation thread waiting for work **
GPGPU-Sim: ** simulation thread waiting for work **
GPGPU-Sim: ** simulation thread waiting for work **
GPGPU-Sim: ** simulation thread waiting for work **
GPGPU-Sim: ** simulation thread waiting for work **
GPGPU-Sim: ** simulation thread waiting for work **
GPGPU-Sim: ** simulation thread waiting for work **
GPGPU-Sim: ** simulation thread waiting for work **
GPGPU-Sim: ** simulation thread waiting for work **
GPGPU-Sim: ** simulation thread waiting for work **
GPGPU-Sim: ** simulation thread waiting for work **
GPGPU-Sim: ** simulation thread waiting for work **
GPGPU-Sim: ** simulation thread waiting for work **
GPGPU-Sim: ** simulation thread waiting for work **
GPGPU-Sim: ** simulation thread waiting for work **
GPGPU-Sim: ** simulation thread waiting for work **
GPGPU-Sim: ** simulation thread waiting for work **
GPGPU-Sim: ** simulation thread waiting for work **
GPGPU-Sim: ** simulation thread waiting for work **
GPGPU-Sim: ** simulation thread waiting for work **
GPGPU-Sim: ** simulation thread waiting for work **
GPGPU-Sim: ** simulation thread waiting for work **
GPGPU-Sim: ** simulation thread waiting for work **
GPGPU-Sim: ** simulation thread waiting for work **
GPGPU-Sim: ** simulation thread waiting for work **
GPGPU-Sim: ** simulation thread waiting for work **
GPGPU-Sim: ** simulation thread waiting for work **
GPGPU-Sim: ** simulation thread waiting for work **
GPGPU-Sim: ** simulation thread waiting for work **
GPGPU-Sim: ** simulation thread waiting for work **
GPGPU-Sim: ** simulation thread waiting for work **
GPGPU-Sim: ** simulation thread waiting for work **
GPGPU-Sim: ** simulation thread waiting for work **
GPGPU-Sim: ** simulation thread waiting for work **
GPGPU-Sim: ** simulation thread waiting for work **
GPGPU-Sim: ** simulation thread waiting for work **
GPGPU-Sim: ** simulation thread waiting for work **
GPGPU-Sim: ** simulation thread waiting for work **
GPGPU-Sim: ** simulation thread waiting for work **
GPGPU-Sim: ** simulation thread waiting for work **
GPGPU-Sim: ** simulation thread waiting for work **
GPGPU-Sim: ** simulation thread waiting for work **
GPGPU-Sim: ** simulation thread waiting for work **
GPGPU-Sim: ** simulation thread waiting for work **
GPGPU-Sim: ** simulation thread waiting for work **
GPGPU-Sim: ** simulation thread waiting for work **
GPGPU-Sim: ** simulation thread waiting for work **
GPGPU-Sim: ** simulation thread waiting for work **
GPGPU-Sim: ** simulation thread waiting for work **
GPGPU-Sim: ** simulation thread waiting for work **
GPGPU-Sim: ** simulation thread waiting for work **
GPGPU-Sim: ** simulation thread waiting for work **
GPGPU-Sim: ** simulation thread waiting for work **
GPGPU-Sim: ** simulation thread waiting for work **
GPGPU-Sim: ** simulation thread waiting for work **
GPGPU-Sim: ** simulation thread waiting for work **
GPGPU-Sim: ** simulation thread waiting for work **
GPGPU-Sim: ** simulation thread waiting for work **
GPGPU-Sim: ** simulation thread waiting for work **
GPGPU-Sim: ** simulation thread waiting for work **
GPGPU-Sim: ** simulation thread waiting for work **
GPGPU-Sim: ** simulation thread waiting for work **
GPGPU-Sim: ** simulation thread waiting for work **
GPGPU-Sim: ** simulation thread waiting for work **
GPGPU-Sim: ** simulation thread waiting for work **
GPGPU-Sim: ** simulation thread waiting for work **
GPGPU-Sim: ** simulation thread waiting for work **
GPGPU-Sim: ** simulation thread waiting for work **
GPGPU-Sim: ** simulation thread waiting for work **
GPGPU-Sim: ** simulation thread waiting for work **
GPGPU-Sim: ** simulation thread waiting for work **
GPGPU-Sim: ** simulation thread waiting for work **
GPGPU-Sim: ** simulation thread waiting for work **
GPGPU-Sim: ** simulation thread waiting for work **
GPGPU-Sim: ** simulation thread waiting for work **
GPGPU-Sim: ** simulation thread waiting for work **
GPGPU-Sim: ** simulation thread waiting for work **
GPGPU-Sim: ** simulation thread waiting for work **
GPGPU-Sim: ** simulation thread waiting for work **
GPGPU-Sim: ** simulation thread waiting for work **
GPGPU-Sim: ** simulation thread waiting for work **
GPGPU-Sim: ** simulation thread waiting for work **
GPGPU-Sim: ** simulation thread waiting for work **
GPGPU-Sim: ** simulation thread waiting for work **
GPGPU-Sim: ** simulation thread waiting for work **
GPGPU-Sim: ** simulation thread waiting for work **
GPGPU-Sim: ** simulation thread waiting for work **
GPGPU-Sim: ** simulation thread waiting for work **
GPGPU-Sim: ** simulation thread waiting for work **
GPGPU-Sim: ** simulation thread waiting for work **
GPGPU-Sim: ** simulation thread waiting for work **
GPGPU-Sim: ** simulation thread waiting for work **
GPGPU-Sim: ** simulation thread waiting for work **
GPGPU-Sim: ** simulation thread waiting for work **
GPGPU-Sim: ** simulation thread waiting for work **
GPGPU-Sim: ** simulation thread waiting for work **
GPGPU-Sim: ** simulation thread waiting for work **
GPGPU-Sim: ** simulation thread waiting for work **
GPGPU-Sim: ** simulation thread waiting for work **
GPGPU-Sim: ** simulation thread waiting for work **
GPGPU-Sim: ** simulation thread waiting for work **
GPGPU-Sim: ** simulation thread waiting for work **
GPGPU-Sim: ** simulation thread waiting for work **
GPGPU-Sim: ** simulation thread waiting for work **
GPGPU-Sim: ** simulation thread waiting for work **
GPGPU-Sim: ** simulation thread waiting for work **
GPGPU-Sim: ** simulation thread waiting for work **
GPGPU-Sim: ** simulation thread waiting for work **
GPGPU-Sim: ** simulation thread waiting for work **
GPGPU-Sim: ** simulation thread waiting for work **
GPGPU-Sim: ** simulation thread waiting for work **
GPGPU-Sim: ** simulation thread waiting for work **
GPGPU-Sim: ** simulation thread waiting for work **
GPGPU-Sim: ** simulation thread waiting for work **
GPGPU-Sim: ** simulation thread waiting for work **
GPGPU-Sim: ** simulation thread waiting for work **
GPGPU-Sim: ** simulation thread waiting for work **
GPGPU-Sim: ** simulation thread waiting for work **
GPGPU-Sim: ** simulation thread waiting for work **
GPGPU-Sim: ** simulation thread waiting for work **
GPGPU-Sim: ** simulation thread waiting for work **
GPGPU-Sim: ** simulation thread waiting for work **
GPGPU-Sim: ** simulation thread waiting for work **
GPGPU-Sim: ** simulation thread waiting for work **
GPGPU-Sim: ** simulation thread waiting for work **
GPGPU-Sim: ** simulation thread waiting for work **
GPGPU-Sim: ** simulation thread waiting for work **
GPGPU-Sim: ** simulation thread waiting for work **
GPGPU-Sim: ** simulation thread waiting for work **
GPGPU-Sim: ** simulation thread waiting for work **
GPGPU-Sim: ** simulation thread waiting for work **
GPGPU-Sim: ** simulation thread waiting for work **
GPGPU-Sim: ** simulation thread waiting for work **
GPGPU-Sim: ** simulation thread waiting for work **
GPGPU-Sim: ** simulation thread waiting for work **
GPGPU-Sim: ** simulation thread waiting for work **
GPGPU-Sim: ** simulation thread waiting for work **
GPGPU-Sim: ** simulation thread waiting for work **
GPGPU-Sim: ** simulation thread waiting for work **
GPGPU-Sim: ** simulation thread waiting for work **
GPGPU-Sim: ** simulation thread waiting for work **
GPGPU-Sim: ** simulation thread waiting for work **
GPGPU-Sim: ** simulation thread waiting for work **
GPGPU-Sim: ** simulation thread waiting for work **
GPGPU-Sim: ** simulation thread waiting for work **
GPGPU-Sim: ** simulation thread waiting for work **
GPGPU-Sim: ** simulation thread waiting for work **
GPGPU-Sim: ** simulation thread waiting for work **
GPGPU-Sim: ** simulation thread waiting for work **
GPGPU-Sim: ** simulation thread waiting for work **
GPGPU-Sim: ** simulation thread waiting for work **
GPGPU-Sim: ** simulation thread waiting for work **
GPGPU-Sim: ** simulation thread waiting for work **
GPGPU-Sim: ** simulation thread waiting for work **
GPGPU-Sim: ** simulation thread waiting for work **
GPGPU-Sim: ** simulation thread waiting for work **
GPGPU-Sim: ** simulation thread waiting for work **
GPGPU-Sim: ** simulation thread waiting for work **
GPGPU-Sim: ** simulation thread waiting for work **
GPGPU-Sim: ** simulation thread waiting for work **
GPGPU-Sim: ** simulation thread waiting for work **
GPGPU-Sim: ** simulation thread waiting for work **
GPGPU-Sim: ** simulation thread waiting for work **
GPGPU-Sim: ** simulation thread waiting for work **
GPGPU-Sim: ** simulation thread waiting for work **
GPGPU-Sim: ** simulation thread waiting for work **
GPGPU-Sim: ** simulation thread waiting for work **
GPGPU-Sim: ** simulation thread waiting for work **
GPGPU-Sim: ** simulation thread waiting for work **
GPGPU-Sim: ** simulation thread waiting for work **
GPGPU-Sim: ** simulation thread waiting for work **
GPGPU-Sim: ** simulation thread waiting for work **
GPGPU-Sim: ** simulation thread waiting for work **
GPGPU-Sim: ** simulation thread waiting for work **
GPGPU-Sim: ** simulation thread waiting for work **
GPGPU-Sim: ** simulation thread waiting for work **
GPGPU-Sim: ** simulation thread waiting for work **
GPGPU-Sim: ** simulation thread waiting for work **
GPGPU-Sim: ** simulation thread waiting for work **
GPGPU-Sim: ** simulation thread waiting for work **
GPGPU-Sim: ** simulation thread waiting for work **
GPGPU-Sim: ** simulation thread waiting for work **
GPGPU-Sim: ** simulation thread waiting for work **
GPGPU-Sim: ** simulation thread waiting for work **
GPGPU-Sim: ** simulation thread waiting for work **
GPGPU-Sim: ** simulation thread waiting for work **
GPGPU-Sim: ** simulation thread waiting for work **
GPGPU-Sim: ** simulation thread waiting for work **
GPGPU-Sim: ** simulation thread waiting for work **
GPGPU-Sim: ** simulation thread waiting for work **
GPGPU-Sim: ** simulation thread waiting for work **
GPGPU-Sim: ** simulation thread waiting for work **
GPGPU-Sim: ** simulation thread waiting for work **
GPGPU-Sim: ** simulation thread waiting for work **
GPGPU-Sim: ** simulation thread waiting for work **
GPGPU-Sim: ** simulation thread waiting for work **
GPGPU-Sim: ** simulation thread waiting for work **
GPGPU-Sim: ** simulation thread waiting for work **
GPGPU-Sim: ** simulation thread waiting for work **
GPGPU-Sim: ** simulation thread waiting for work **
GPGPU-Sim: ** simulation thread waiting for work **
GPGPU-Sim: ** simulation thread waiting for work **
GPGPU-Sim: ** simulation thread waiting for work **
GPGPU-Sim: ** simulation thread waiting for work **
GPGPU-Sim: ** simulation thread waiting for work **
GPGPU-Sim: ** simulation thread waiting for work **
GPGPU-Sim: ** simulation thread waiting for work **
GPGPU-Sim: ** simulation thread waiting for work **
GPGPU-Sim: ** simulation thread waiting for work **
GPGPU-Sim: ** simulation thread waiting for work **
GPGPU-Sim: ** simulation thread waiting for work **
GPGPU-Sim: ** simulation thread waiting for work **
GPGPU-Sim: ** simulation thread waiting for work **
GPGPU-Sim: ** simulation thread waiting for work **
GPGPU-Sim: ** simulation thread waiting for work **
GPGPU-Sim: ** simulation thread waiting for work **
GPGPU-Sim: ** simulation thread waiting for work **
GPGPU-Sim: ** simulation thread waiting for work **
GPGPU-Sim: ** simulation thread waiting for work **
GPGPU-Sim: ** simulation thread waiting for work **
GPGPU-Sim: ** simulation thread waiting for work **
GPGPU-Sim: ** simulation thread waiting for work **
GPGPU-Sim: ** simulation thread waiting for work **
GPGPU-Sim: ** simulation thread waiting for work **
GPGPU-Sim: ** simulation thread waiting for work **
GPGPU-Sim: ** simulation thread waiting for work **
GPGPU-Sim: ** simulation thread waiting for work **
GPGPU-Sim: ** simulation thread waiting for work **
GPGPU-Sim: ** simulation thread waiting for work **
GPGPU-Sim: ** simulation thread waiting for work **
GPGPU-Sim: ** simulation thread waiting for work **
GPGPU-Sim: ** simulation thread waiting for work **
GPGPU-Sim: ** simulation thread waiting for work **
GPGPU-Sim: ** simulation thread waiting for work **
GPGPU-Sim: ** simulation thread waiting for work **
GPGPU-Sim: ** simulation thread waiting for work **
GPGPU-Sim: ** simulation thread waiting for work **
GPGPU-Sim: ** simulation thread waiting for work **
GPGPU-Sim: ** simulation thread waiting for work **
GPGPU-Sim: ** simulation thread waiting for work **
GPGPU-Sim: ** simulation thread waiting for work **
GPGPU-Sim: ** simulation thread waiting for work **
GPGPU-Sim: ** simulation thread waiting for work **
GPGPU-Sim: ** simulation thread waiting for work **
GPGPU-Sim: ** simulation thread waiting for work **
GPGPU-Sim: ** simulation thread waiting for work **
GPGPU-Sim: ** simulation thread waiting for work **
GPGPU-Sim: ** simulation thread waiting for work **
GPGPU-Sim: ** simulation thread waiting for work **
GPGPU-Sim: ** simulation thread waiting for work **
GPGPU-Sim: ** simulation thread waiting for work **
GPGPU-Sim: ** simulation thread waiting for work **
GPGPU-Sim: ** simulation thread waiting for work **
GPGPU-Sim: ** simulation thread waiting for work **
GPGPU-Sim: ** simulation thread waiting for work **
GPGPU-Sim: ** simulation thread waiting for work **
GPGPU-Sim: ** simulation thread waiting for work **
GPGPU-Sim: ** simulation thread waiting for work **
GPGPU-Sim: ** simulation thread waiting for work **
GPGPU-Sim: ** simulation thread waiting for work **
GPGPU-Sim: ** simulation thread waiting for work **
GPGPU-Sim: ** simulation thread waiting for work **
GPGPU-Sim: ** simulation thread waiting for work **
GPGPU-Sim: ** simulation thread waiting for work **
GPGPU-Sim: ** simulation thread waiting for work **
GPGPU-Sim: ** simulation thread waiting for work **
GPGPU-Sim: ** simulation thread waiting for work **
GPGPU-Sim: ** simulation thread waiting for work **
GPGPU-Sim: ** simulation thread waiting for work **
GPGPU-Sim: ** simulation thread waiting for work **
GPGPU-Sim: ** simulation thread waiting for work **
GPGPU-Sim: ** simulation thread waiting for work **
GPGPU-Sim: ** simulation thread waiting for work **
GPGPU-Sim: ** simulation thread waiting for work **
GPGPU-Sim: ** simulation thread waiting for work **
GPGPU-Sim: ** simulation thread waiting for work **
GPGPU-Sim: ** simulation thread waiting for work **
GPGPU-Sim: ** simulation thread waiting for work **
GPGPU-Sim: ** simulation thread waiting for work **
GPGPU-Sim: ** simulation thread waiting for work **
GPGPU-Sim: ** simulation thread waiting for work **
GPGPU-Sim: ** simulation thread waiting for work **
GPGPU-Sim: ** simulation thread waiting for work **
GPGPU-Sim: ** simulation thread waiting for work **
GPGPU-Sim: ** simulation thread waiting for work **
GPGPU-Sim: ** simulation thread waiting for work **
GPGPU-Sim: ** simulation thread waiting for work **
GPGPU-Sim: ** simulation thread waiting for work **
GPGPU-Sim: ** simulation thread waiting for work **
GPGPU-Sim: ** simulation thread waiting for work **
GPGPU-Sim: ** simulation thread waiting for work **
GPGPU-Sim: ** simulation thread waiting for work **
GPGPU-Sim: ** simulation thread waiting for work **
GPGPU-Sim: ** simulation thread waiting for work **
GPGPU-Sim: ** simulation thread waiting for work **
GPGPU-Sim: ** simulation thread waiting for work **
GPGPU-Sim: ** simulation thread waiting for work **
GPGPU-Sim: ** simulation thread waiting for work **
GPGPU-Sim: ** simulation thread waiting for work **
GPGPU-Sim: ** simulation thread waiting for work **
GPGPU-Sim: ** simulation thread waiting for work **
GPGPU-Sim: ** simulation thread waiting for work **
GPGPU-Sim: ** simulation thread waiting for work **
GPGPU-Sim: ** simulation thread waiting for work **
GPGPU-Sim: ** simulation thread waiting for work **
GPGPU-Sim: ** simulation thread waiting for work **
GPGPU-Sim: ** simulation thread waiting for work **
GPGPU-Sim: ** simulation thread waiting for work **
GPGPU-Sim: ** simulation thread waiting for work **
[...]
15.672859 15.008920 14.331308 13.643931 12.974133 12.297498 11.613050 10.938369 10.265640 9.582170 8.915300 8.235736 7.555683 6.881001 6.205343 5.529685 4.848900 4.170922 3.498621 2.818065 2.144192 1.469754 0.792021 0.115875 -0.560150 -1.238616 -1.916471 -2.591214 -3.266811 -3.943934 -4.617670 -5.295861 -5.972373 -6.649252 -7.328817 -8.004476 -8.680134 -9.357745 -10.032427 -10.711991 -11.386673 -12.066237 -12.734083 -13.413648 -14.089306 -14.768870 -15.440622 -16.124092 -15.033150 -13.806463 -12.462591 -11.002506 -9.418400 -7.682986 -5.838075 -3.871155 -1.775329 0.460084 2.812808 5.279727 7.885319 10.624640 13.483222 16.463814 
4.804390 4.633127 4.466868 4.291210 4.123486 3.952344 3.784987 3.615188 3.441971 3.275224 3.098956 2.931720 2.760823 2.589681 2.420127 2.253624 2.082726 1.911951 1.739711 1.571254 1.401089 1.229826 1.060759 0.891021 0.720307 0.551607 0.380099 0.210668 0.039532 -0.130823 -0.301233 -0.470818 -0.640037 -0.810568 -0.981099 -1.152241 -1.322284 -1.491961 -1.661393 -1.831070 -2.001723 -2.173109 -2.341687 -2.513073 -2.683116 -2.853769 -3.021615 -3.192757 -3.616523 -3.911993 -4.083257 -4.126621 -4.043399 -3.835207 -3.499452 -3.042053 -2.454497 -1.740080 -0.902005 0.062473 1.155095 2.373541 3.716865 5.182320 
-6.075553 -5.736563 -5.399526 -5.066395 -4.730334 -4.392321 -4.056748 -3.720200 -3.382674 -3.045637 -2.712262 -2.375225 -2.039897 -1.704324 -1.366799 -1.028785 -0.694861 -0.359411 -0.021336 0.313259 0.650449 0.987273 1.323730 1.659409 1.994714 2.330782 2.667850 3.004002 3.338781 3.677038 4.013099 4.349770 4.686685 5.020060 5.358562 5.692914 6.028974 6.364790 6.702560 7.036667 7.375169 7.711718 8.048266 8.383839 8.719411 9.054007 9.390067 9.731499 7.789728 5.979426 4.299739 2.745175 1.311704 0.009703 -1.173401 -2.212829 -3.142394 -3.942441 -4.620663 -5.163509 -5.583796 -5.882623 -6.049859 -6.089775 
-15.244925 -14.688161 -14.127491 -13.570727 -13.013964 -12.459153 -11.896530 -11.343673 -10.784956 -10.222333 -9.661663 -9.106853 -8.545206 -7.989419 -7.439492 -6.873939 -6.317175 -5.751134 -5.194370 -4.633700 -4.078279 -3.521455 -2.968537 -2.409576 -1.846342 -1.286649 -0.726834 -0.167140 0.393408 0.947242 1.500465 2.064309 2.623758 3.182475 3.744122 4.303327 4.861067 5.414901 5.973618 6.529405 7.088121 7.650744 8.215321 8.768178 9.330801 9.889518 10.444328 10.999139 15.324457 19.761105 24.331539 20.978146 17.739988 14.636840 11.662109 4.810547 2.074342 -0.519041 -2.978147 -5.315914 -7.546260 -9.638788 -11.604608 -13.428703 
15.512826 14.850840 14.182994 13.501476 12.828748 12.161879 11.506728 10.835953 10.164201 9.491472 8.821673 8.148457 7.484029 6.822042 6.156150 5.479759 4.810205 4.140406 3.471767 2.810345 2.137357 1.467802 0.801055 0.135041 -0.534270 -1.205778 -1.875516 -2.543728 -3.213465 -3.874964 -4.546899 -5.214683 -5.882163 -6.554891 -7.221760 -7.892047 -8.558917 -9.227739 -9.899491 -10.565384 -11.240066 -11.905958 -12.569898 -13.237743 -13.905589 -14.579294 -15.245187 -15.916939 -14.845526 -13.649969 -12.332584 -10.893009 -9.316713 -7.623170 -5.804749 -3.853454 -1.773253 0.430056 2.744571 5.197819 7.783880 10.493049 13.327095 16.286201 
4.633371 4.471079 4.307140 4.147534 3.982618 3.823195 3.657302 3.501175 3.334306 3.169146 3.012531 2.845662 2.685018 2.523154 2.360069 2.200890 2.036951 1.875209 1.712368 1.551480 1.387541 1.223601 1.061859 0.901826 0.737581 0.576693 0.414219 0.252248 0.090917 -0.071466 -0.234764 -0.396873 -0.558493 -0.721334 -0.883686 -1.046161 -1.208269 -1.370134 -1.531998 -1.694717 -1.855971 -2.019177 -2.180798 -2.342052 -2.505869 -2.668832 -2.830330 -2.992316 -3.440130 -3.758916 -3.950809 -4.019412 -3.961977 -3.776246 -3.464417 -3.028380 -2.466673 -1.777036 -0.959530 -0.020930 1.049688 2.243842 3.565193 5.006173 
-6.248770 -5.902455 -5.554188 -5.219104 -4.874254 -4.522569 -4.179184 -3.838241 -3.493879 -3.148053 -2.805645 -2.462748 -2.115701 -1.772561 -1.425758 -1.084815 -0.740789 -0.396764 -0.051487 0.290677 0.635649 0.979827 1.327362 1.668205 2.012499 2.356937 2.701298 3.045446 3.390051 3.733802 4.078408 4.423257 4.765910 5.109783 5.456830 5.797285 6.143355 6.487716 6.831345 7.174242 7.518359 7.863208 8.209522 8.550954 8.898245 9.241630 9.579643 9.929864 7.968073 6.132991 4.428280 2.850767 1.394347 0.067565 -1.130798 -2.206847 -3.154966 -3.979550 -4.677181 -5.246394 -5.689874 -6.009209 -6.201103 -6.268363 
-15.858083 -15.316944 -14.785571 -14.252245 -13.718919 -13.173874 -12.654220 -12.115034 -11.579755 -11.042522 -10.515056 -9.968058 -9.442544 -8.901405 -8.369056 -7.838659 -7.293614 -6.767124 -6.230380 -5.690218 -5.151765 -4.629028 -4.090484 -3.553496 -3.025357 -2.485989 -1.947414 -1.413111 -0.879846 -0.344933 0.191018 0.725565 1.255717 1.793926 2.335553 2.867903 3.404159 3.935532 4.465928 5.002184 5.538440 6.072742 6.611928 7.153067 7.676627 8.217766 8.743279 9.282465 13.550166 17.937984 22.444942 19.045652 15.749877 12.595947 5.545898 2.661256 -0.130613 -2.785520 -5.306149 -7.689815 -9.965082 -12.130242 -14.144035 -16.039907 
15.337168 14.677135 14.028820 13.359021 12.696058 12.037002 11.373062 10.721818 10.052996 9.398822 8.738789 8.073873 7.413351 6.757712 6.091820 5.431054 4.771753 4.109035 3.446804 2.787000 2.131254 1.463775 0.801728 0.145356 -0.517912 -1.176114 -1.833523 -2.499720 -3.158167 -3.816247 -4.473686 -5.139365 -5.801961 -6.460530 -7.120563 -7.784503 -8.442583 -9.102616 -9.763626 -10.426589 -11.087599 -11.743726 -12.407665 -13.063792 -13.727732 -14.387765 -15.053658 -15.711737 -14.671576 -13.487614 -12.202579 -10.783510 -9.236513 -7.559449 -5.763610 -3.827940 -1.777036 0.403934 2.695866 5.121770 7.688300 10.365364 13.174874 16.112497 
4.460703 4.309093 4.152539 3.995496 3.843337 3.689346 3.537674 3.380205 3.226946 3.070392 2.918416 2.763632 2.606772 2.452842 2.300988 2.146204 1.992518 1.837490 1.685147 1.529386 1.373137 1.219330 1.065034 0.912325 0.759127 0.603122 0.449040 0.294988 0.140048 -0.013573 -0.167594 -0.323721 -0.477224 -0.631001 -0.785297 -0.941057 -1.094255 -1.249039 -1.401748 -1.557387 -1.711072 -1.865490 -2.020152 -2.174570 -2.330209 -2.482185 -2.637580 -2.790777 -3.262334 -3.604862 -3.823367 -3.915041 -3.880372 -3.718628 -3.429320 -3.017210 -2.476560 -1.813229 -1.021113 -0.106806 0.942390 2.112740 3.410958 4.831064 
-6.412709 -6.061024 -5.708850 -5.357164 -5.010362 -4.655746 -4.304549 -3.949934 -3.600690 -3.248028 -2.892436 -2.541727 -2.191750 -1.838844 -1.483252 -1.133276 -0.781102 -0.429905 -0.077365 0.273039 0.626464 0.978058 1.332185 1.683738 2.035922 2.386940 2.739110 3.090430 3.441566 3.795204 4.147256 4.499918 4.851726 5.204144 5.554853 5.906538 6.259201 6.613328 6.961839 7.314745 7.664966 8.020557 8.373708 8.723928 9.077079 9.431206 9.782891 10.132135 8.149348 6.288998 4.565122 2.958312 1.480407 0.126893 -1.098448 -2.191099 -3.163144 -4.016170 -4.736628 -5.329278 -5.796196 -6.142387 -6.355765 -6.444997 
-14.453663 -13.935962 -13.429003 -12.911302 -12.412155 -11.905196 -11.394331 -10.878583 -10.360882 -9.854899 -9.337198 -8.839028 -8.326210 -7.806556 -7.303503 -6.783849 -6.274937 -5.767001 -5.240023 -4.734040 -4.231110 -3.718536 -3.212675 -2.697416 -2.187222 -1.671230 -1.155054 -0.646386 -0.135948 0.377114 0.882791 1.394633 1.909160 2.417584 2.940168 3.439315 3.957993 4.464952 4.974840 5.482776 5.997547 6.514272 7.024160 7.532096 8.051750 8.557733 9.065668 9.575557 13.786617 18.123653 22.572020 19.116089 15.773438 8.540527 5.452271 2.513918 -0.328732 -3.029293 -5.615596 -8.060785 -10.387811 -12.588005 -14.669059 -16.612051 
15.177135 14.513195 13.870740 13.203871 12.564345 11.901382 11.245255 10.607683 9.955462 9.292500 8.643209 7.985617 7.335349 6.681664 6.032372 5.378931 4.727931 4.075100 3.422269 2.771849 2.116119 1.462189 0.809541 0.156435 -0.495206 -1.152553 -1.799403 -2.454675 -3.107262 -3.763389 -4.410727 -5.064046 -5.719563 -6.369586 -7.022784 -7.676958 -8.328202 -8.983353 -9.637527 -10.284864 -10.942945 -11.595165 -12.247386 -12.897654 -13.551827 -14.206001 -14.854315 -15.510443 -14.489811 -13.343327 -12.065737 -10.677919 -9.142639 -7.500610 -5.722472 -3.831724 -1.790585 0.365117 2.643255 5.041815 7.573188 10.232797 13.022654 15.936839 
4.292003 4.146679 3.997053 3.852675 3.701126 3.560746 3.410112 3.269183 3.119525 2.972676 2.827169 2.681174 2.535606 2.390954 2.243372 2.095423 1.949062 1.802579 1.656706 1.511687 1.365570 1.217622 1.070528 0.925875 0.779819 0.633214 0.485540 0.339072 0.193619 0.046288 -0.099386 -0.245382 -0.392872 -0.539630 -0.684954 -0.832170 -0.978653 -1.124526 -1.270887 -1.416883 -1.563976 -1.709361 -1.856699 -2.003549 -2.148933 -2.295539 -2.441412 -2.587285 -3.082523 -3.450198 -3.690920 -3.804933 -3.795044 -3.656859 -3.394529 -3.005612 -2.486813 -1.844356 -1.075800 -0.186395 0.834969 1.984994 3.258310 4.652476 
-6.580067 -6.224963 -5.864977 -5.501573 -5.146469 -4.784530 -4.424055 -4.062604 -3.705547 -3.345561 -2.983133 -2.623147 -2.264625 -1.901465 -1.542944 -1.181248 -0.822880 -0.464694 -0.105684 0.254485 0.615082 0.975862 1.336397 1.695979 2.053776 2.415414 2.775275 3.135047 3.495278 3.855630 4.215861 4.576213 4.934613 5.293622 5.655806 6.015548 6.374802 6.736497 7.094531 7.454029 7.816945 8.174489 8.532522 8.897880 9.256889 9.615411 9.974421 10.333430 8.328182 6.444517 4.694151 3.064880 1.565491 0.189149 -1.060239 -2.178280 -3.171810 -4.044489 -4.790216 -5.408257 -5.904228 -6.269217 -6.508962 -6.618702 
-11.041430 -10.556932 -10.056809 -9.567429 -9.093673 -8.606245 -8.112958 -7.630414 -7.139080 -6.642863 -6.163248 -5.673378 -5.189368 -4.701452 -4.209630 -3.728794 -3.235019 -2.744753 -2.261323 -1.770050 -1.280792 -0.798765 -0.310941 0.172336 0.662083 1.151891 1.644141 2.132057 2.619119 3.105448 3.588969 4.076641 4.564557 5.057356 5.543807 6.035141 6.518662 7.007067 7.491565 7.977039 8.471303 8.955801 9.452018 9.932610 10.421014 10.911371 11.390010 11.882320 16.042599 20.320066 24.718628 21.207031 13.791016 10.520143 7.373293 4.381228 1.479008 -1.272334 -3.905512 -6.419061 -8.801750 -11.056998 -13.190176 -15.184194 
15.003429 14.359021 13.704847 13.062392 12.407242 11.781388 11.125261 10.478900 9.837421 9.190084 8.543722 7.901267 7.253929 6.611962 5.969995 5.323390 4.679714 4.035916 3.384123 2.740691 2.094147 1.451204 0.808016 0.163852 -0.482509 -1.125575 -1.771570 -2.417016 -3.060264 -3.705649 -4.351186 -4.994221 -5.638385 -6.284503 -6.929887 -7.575272 -8.218704 -8.864089 -9.509474 -10.154859 -10.800243 -11.444652 -12.089060 -12.731515 -13.373970 -14.022284 -14.668646 -15.311100 -14.317814 -13.193666 -11.942568 -10.570374 -9.076111 -7.446654 -5.696958 -3.817929 -1.811946 0.329229 2.582831 4.956001 7.469796 10.103159 12.872386 15.757275 
4.121777 3.984403 3.844023 3.707016 3.567093 3.428270 3.291338 3.152668 3.014241 2.878195 2.739280 2.597679 2.462426 2.322595 2.185878 2.046840 1.909512 1.767790 1.629973 1.489105 1.353486 1.215181 1.076022 0.938816 0.798497 0.661901 0.523413 0.384315 0.245110 0.106495 -0.031499 -0.168751 -0.308002 -0.445879 -0.585343 -0.724014 -0.862563 -1.000502 -1.139295 -1.277966 -1.414928 -1.553721 -1.693002 -1.831306 -1.969367 -2.109381 -2.246953 -2.384281 -2.902469 -3.294313 -3.558228 -3.698242 -3.710570 -3.596434 -3.356198 -2.989498 -2.499385 -1.879389 -1.133904 -0.267448 0.732553 1.857920 3.107066 4.478893 
-6.752307 -6.388414 -6.022569 -5.650864 -5.280135 -4.916243 -4.546002 -4.178204 -3.812846 -3.443094 -3.075295 -2.706520 -2.339698 -1.970922 -1.604344 -1.233249 -0.864901 -0.499727 -0.132172 0.236603 0.602479 0.972140 1.340610 1.708706 2.075048 2.442610 2.812614 3.178444 3.545083 3.914591 4.284343 4.649457 5.018476 5.385054 5.753829 6.123581 6.491136 6.858447 7.226978 7.593800 7.960134 8.326956 8.700614 9.066460 9.434258 9.801081 10.167903 10.538631 8.506041 6.596617 4.817321 3.174866 1.640810 0.246523 -1.022030 -2.173275 -3.187312 -4.080133 -4.849663 -5.496025 -6.007620 -6.398977 -6.659718 -6.795337 
-13.638720 -13.154954 -12.701218 -12.225020 -11.769331 -11.308270 -10.850140 -10.382243 -9.922159 -9.460122 -8.983437 -8.516517 -8.059362 -7.590489 -7.134312 -6.675204 -6.204378 -5.738435 -5.268097 -4.806304 -4.346220 -3.882138 -3.416287 -2.960109 -2.498560 -2.027673 -1.560082 -1.088645 -0.635275 -0.165425 0.300030 0.751325 1.223371 1.687362 2.156723 2.620225 3.082262 3.540393 4.015125 4.469350 4.937246 5.399283 5.868156 6.340936 6.800043 7.257197 7.728024 8.179318 12.284910 16.505493 20.853516 21.300781 17.851685 14.519533 11.324588 8.254398 5.311162 2.492682 -0.184686 -2.745110 -5.198112 -7.522573 -9.693959 -11.748524 
14.839490 14.191175 13.557509 12.919937 12.270646 11.636003 11.008197 10.369648 9.735982 9.098410 8.454001 7.821800 7.185693 6.549585 5.905665 5.275417 4.635159 3.997221 3.368499 2.726624 2.090730 1.454623 0.813144 0.182774 -0.459315 -1.094202 -1.730065 -2.369285 -3.004965 -3.643026 -4.276753 -4.915241 -5.552569 -6.188676 -6.826249 -7.465286 -8.102370 -8.736036 -9.372632 -10.013134 -10.645823 -11.288279 -11.919015 -12.555611 -13.198065 -13.830755 -14.473209 -15.105900 -14.134096 -13.036196 -11.801819 -10.466736 -8.988096 -7.382932 -5.655819 -3.804134 -1.817683 0.293341 2.524360 4.866280 7.366403 9.971568 12.712353 15.571851 
3.950803 3.820197 3.689470 3.560326 3.427263 3.298785 3.168537 3.037160 2.911337 2.776694 2.647178 2.518090 2.384119 2.254359 2.126064 1.994595 1.863493 1.730437 1.601654 1.469941 1.341036 1.210299 1.079563 0.947484 0.819921 0.687964 0.557533 0.426003 0.296823 0.167163 0.034717 -0.095340 -0.226458 -0.356645 -0.487015 -0.617324 -0.748671 -0.879163 -1.008434 -1.139293 -1.270151 -1.400888 -1.532234 -1.662971 -1.793219 -1.923223 -2.054203 -2.182986 -2.724977 -3.140992 -3.428467 -3.590941 -3.626463 -3.536496 -3.320309 -2.977656 -2.509760 -1.914300 -1.193840 -0.349479 0.625742 1.728526 2.954113 4.305188 
-6.921129 -6.547959 -6.179672 -5.800643 -5.425032 -5.051373 -4.671856 -4.295756 -3.920633 -3.543069 -3.169899 -2.792334 -2.418188 -2.039891 -1.664524 -1.287081 -0.911806 -0.537019 -0.161590 0.213777 0.588419 0.966403 1.342137 1.718938 2.092871 2.468269 2.843163 3.220254 3.595377 3.972820 4.348187 4.725629 5.101363 5.473800 5.851365 6.226976 6.602099 6.979175 7.356495 7.730642 8.106253 8.485282 8.859917 9.236993 9.607233 9.987727 10.364315 10.738462 8.680479 6.753601 4.951233 3.282411 1.730776 0.307315 -0.987728 -2.153620 -3.201349 -4.118706 -4.904228 -5.572073 -6.117849 -6.528370 -6.812427 -6.970995 
-14.204270 -13.766647 -13.320235 -12.869917 -12.431317 -12.006390 -11.557048 -11.128214 -10.686685 -10.237343 -9.795814 -9.358191 -8.916661 -8.487827 -8.034579 -7.597933 -7.160310 -6.714874 -6.274810 -5.828642 -5.384549 -4.946255 -4.511378 -4.066919 -3.631616 -3.191429 -2.747214 -2.307760 -1.861653 -1.424336 -0.993060 -0.548845 -0.107072 0.336899 0.774033 1.226793 1.670276 2.100086 2.529897 2.979239 3.423697 3.862297 4.301873 4.747309 5.196651 5.626461 6.066037 6.495848 10.544799 14.714844 14.990234 19.406372 15.886965 12.503055 9.250492 6.133428 3.131598 0.261359 -2.479485 -5.096549 -7.582754 -9.956899 -12.205555 -14.318713 
14.661879 14.025283 13.401382 12.780412 12.144793 11.502337 10.886250 10.256490 9.631613 9.003806 8.373070 7.745263 7.109156 6.481837 5.857937 5.224759 4.593290 3.971099 3.333771 2.707185 2.079928 1.449374 0.822911 0.191411 -0.438440 -1.065270 -1.695213 -2.319846 -2.954793 -3.580891 -4.210376 -4.833575 -5.466753 -6.099198 -6.726028 -7.355788 -7.984083 -8.616773 -9.241650 -9.870433 -10.499216 -11.129952 -11.754829 -12.387518 -13.014349 -13.645084 -14.277775 -14.910463 -13.954287 -12.878723 -11.676697 -10.349424 -8.902037 -7.317257 -5.606868 -3.786433 -1.825372 0.261360 2.473702 4.788278 7.257151 9.855602 12.567945 15.398146 
3.782393 3.655807 3.534852 3.414629 3.291937 3.166580 3.045369 2.923544 2.800772 2.678276 2.553307 2.431970 2.308619 2.186611 2.064114 1.943693 1.818694 1.695770 1.574433 1.451021 1.327365 1.203708 1.082005 0.960058 0.839026 0.715858 0.592141 0.469889 0.346232 0.223636 0.101201 -0.020266 -0.143998 -0.267075 -0.388686 -0.511366 -0.635022 -0.757458 -0.879527 -1.001108 -1.124642 -1.248055 -1.369758 -1.493536 -1.616338 -1.739506 -1.861941 -1.983156 -2.546998 -2.987305 -3.297240 -3.482176 -3.545041 -3.479733 -3.282100 -2.967524 -2.520867 -1.949699 -1.253531 -0.432363 0.519176 1.597668 2.799939 4.126722 
-7.091905 -6.706039 -6.327010 -5.940168 -5.562604 -5.177715 -4.795268 -4.409403 -4.022561 -3.640114 -3.257666 -2.873266 -2.490819 -2.106418 -1.723239 -1.333833 -0.955292 -0.569122 -0.185637 0.196139 0.578876 0.964512 1.348241 1.731360 2.115791 2.499001 2.882203 3.264780 3.650188 4.032513 4.418378 4.801924 5.184982 5.567673 5.951585 6.334765 6.719654 7.104054 7.488454 7.869925 8.254813 8.640190 9.023126 9.408014 9.791926 10.173397 10.559263 10.940245 8.859314 6.911072 5.082216 3.392886 1.814884 0.370549 -0.952448 -2.142755 -3.210991 -4.152397 -4.967581 -5.656911 -6.219288 -6.655567 -6.969042 -7.151536 
-12.775436 -12.360274 -11.937544 -11.518598 -11.105450 -10.692790 -10.279093 -9.864419 -9.442421 -9.023353 -8.606237 -8.180333 -7.771030 -7.357821 -6.933870 -6.521638 -6.100616 -5.682036 -5.270781 -4.842191 -4.426785 -4.013789 -3.602808 -3.182031 -2.764183 -2.353660 -1.930685 -1.504048 -1.094807 -0.676959 -0.261492 0.149032 0.569321 0.984483 1.409899 1.832385 2.242664 2.664662 3.069082 3.486197 3.912102 4.333123 4.745356 5.165401 5.577633 6.003537 6.413816 6.828002 10.818359 10.912109 15.148561 19.510012 15.937869 12.500492 9.195928 6.008551 2.963752 0.040047 -2.748893 -5.424551 -7.975209 -10.397083 -12.691760 -14.869371 
14.495986 13.871109 13.244279 12.630144 11.995502 11.392109 10.762349 10.146261 9.518455 8.908226 8.277490 7.657495 7.037990 6.414577 5.799466 5.174589 4.552398 3.931305 3.307771 2.686659 2.071018 1.448155 0.825292 0.203711 -0.415246 -1.040489 -1.663718 -2.278280 -2.901204 -3.523639 -4.145953 -4.762651 -5.384110 -6.008255 -6.627760 -7.249708 -7.871655 -8.491650 -9.110667 -9.732615 -10.354562 -10.973579 -11.596502 -12.215521 -12.838444 -13.461369 -14.086245 -14.699404 -13.773499 -12.728577 -11.546690 -10.243834 -8.812069 -7.258419 -5.581355 -3.778497 -1.840874 0.220589 2.413278 4.714182 7.155712 9.711316 12.413771 15.218581 
3.612381 3.498856 3.382310 3.266467 3.152088 3.036748 2.926044 2.807280 2.693763 2.579522 2.463678 2.350001 2.235012 2.119473 2.005155 1.890105 1.775116 1.661347 1.544893 1.431002 1.317112 1.202855 1.086889 0.972754 0.860939 0.744302 0.629251 0.514079 0.398266 0.285214 0.169996 0.055915 -0.058891 -0.174728 -0.289869 -0.403760 -0.518993 -0.633922 -0.748179 -0.862313 -0.976448 -1.092292 -1.207037 -1.322637 -1.437992 -1.551761 -1.666506 -1.780885 -2.369019 -2.830688 -3.166746 -3.375607 -3.459469 -3.414912 -3.247431 -2.951531 -2.531242 -1.981192 -1.309317 -0.512563 0.415539 1.469007 2.646986 3.948379 
-7.261703 -6.864120 -6.478254 -6.083600 -5.698711 -5.311381 -4.916727 -4.525979 -4.130348 -3.741553 -3.348852 -2.955662 -2.567356 -2.174411 -1.780733 -1.390595 -0.996338 -0.603728 -0.217130 0.176242 0.566883 0.959630 1.351965 1.742866 2.135292 2.525766 2.918368 3.309245 3.701336 4.094404 4.485884 4.877609 5.268113 5.659105 6.050341 6.441333 6.834279 7.224294 7.617484 8.006766 8.399467 8.790704 9.183893 9.573665 9.967831 10.363462 10.751280 11.144470 9.040100 7.062685 5.215151 3.496524 1.898991 0.431829 -0.915216 -2.126030 -3.217704 -4.180960 -5.019216 -5.731984 -6.325611 -6.785449 -7.119310 -7.324265 
-9.341720 -8.935347 -8.550458 -8.138226 -7.753337 -7.352824 -6.977701 -6.579140 -6.196204 -5.791784 -5.399083 -5.006382 -4.606845 -4.220980 -3.826326 -3.426789 -3.041412 -2.638701 -2.248014 -1.859280 -1.459621 -1.066675 -0.673486 -0.283470 0.109963 0.506510 0.899760 1.294414 1.691510 2.081221 2.472762 2.864975 3.258897 3.653551 4.053576 4.446766 4.839467 5.229239 5.620963 6.015617 6.407342 6.801996 7.192744 7.591305 7.987912 8.372801 8.773314 9.164062 9.076172 13.135804 17.320559 21.623417 17.996586 14.509404 11.141363 7.903205 4.807625 1.830209 -1.020254 -3.744740 -6.361805 -8.836291 -11.183825 -13.412217 
GPGPU-Sim: *** exit detected ***
